6
Properties=species:S:1:pos:R:3 i=0 time=0.0 E=-34.4504806384 pbc="F F F"
O       -4.50514890      -1.90161631       4.35000000
H       -4.41569980      -2.61554058       3.71000000
H       -3.70791509      -1.37085154       4.25600000
O       -6.89002910      -0.22823069       3.63500000
H       -7.51461001      -0.19470921       4.36500000
H       -6.15851942      -0.78318887       3.94700000
