     192
 i =     6600, time =     9900.000, E =     -1100.0734566680
  O         6.1853841224       -3.5626442373        3.1256844561
  H         6.3521761850       -4.4072769118        2.6172708274
  H         6.7813970893       -3.6419655453        3.9219220598
  O        -5.8033290090        2.2316390929        5.5235850714
  H        -5.5762235310        1.7184124760        4.7318821134
  H        -5.0613338857        2.1484303587        6.1435409493
  O         6.2010435322        4.9285628298        5.6951505371
  H         5.3060077807        4.9995954083        5.3170102145
  H         6.4135042099        3.9582233469        5.7047579497
  O        -1.7830645154        0.8294098244       -4.1016675614
  H        -1.5767666203        1.0125958097       -3.1782126430
  H        -1.4475048039       -0.0779680067       -4.2903554536
  O        -3.9298388207        5.1612177586        4.2059441614
  H        -4.9123477411        5.0900039932        4.4322166151
  H        -3.9522363247        5.8139862857        3.4854355688
  O         7.8644906627       -0.5373392772        4.5444592012
  H         7.9697049820       -1.2538735138        5.2417451309
  H         7.2975319618       -0.8871253937        3.8372364102
  O         3.7809274713       -5.2173261174       -0.1113243089
  H         3.2097736507       -4.5057680402       -0.3978463248
  H         3.3680248429       -6.0512715062       -0.4395872573
  O        -1.2535058924       -2.5478711053       -1.0691694856
  H        -1.9565559539       -3.1764914203       -1.4122147277
  H        -1.6710825409       -1.7140746620       -0.7363710957
  O         3.7228997591       -2.7321012192        3.8707010538
  H         4.5949811645       -3.1921919451        3.6494874746
  H         3.4383896405       -2.2212201319        3.1312229409
  O         3.4324132782        3.0906256446        5.5719945526
  H         4.1749015057        2.4609579558        5.6368433620
  H         3.3703215947        3.4339711977        6.4623271728
  O         5.3400083458       -4.5426721956       -3.3470385388
  H         5.3462691131       -3.6255429599       -3.7091477696
  H         4.4477860128       -4.6919371857       -3.5637315306
  O         2.3911627288       -2.0101958689        1.4305933085
  H         1.6241968524       -2.5845015641        1.4354148857
  H         2.9714924995       -2.2100928669        0.6527590181
  O         2.8638360582       -4.7054779288       -4.7113321017
  H         2.7608739739       -5.5473703695       -4.2386311565
  H         2.8487850286       -4.8462246418       -5.7288853210
  O         5.0824439861        3.9406007731       -2.5569391240
  H         5.3829001183        2.9898181765       -2.4601429934
  H         5.8035631405        4.5726127287       -2.5802498191
  O         2.8613970708       -0.7223623477        5.8111236045
  H         3.1224252032       -1.4238114732        5.2780496864
  H         2.4224765556       -0.0811974206        5.1687381677
  O        -0.7369070873        2.5477687583        6.6573036306
  H        -0.8966532250        2.2601961805        5.7262513363
  H        -1.2628215354        1.8708665885        7.1146064415
  O        -1.9120855854       -3.6394166779        2.6817998444
  H        -1.1882964842       -3.6923404646        1.9920125698
  H        -1.6184706570       -4.0593575305        3.5157257994
  O        -2.0483474111        3.8844740822        2.3321925782
  H        -1.3838608105        3.2362691723        2.7034917150
  H        -2.6789383279        4.0846696810        3.0607280248
  O         1.7325406336       -1.0946637755       -4.0794960372
  H         2.2144766475       -1.0843397834       -4.9388604592
  H         2.3262390167       -0.5978605328       -3.4967237626
  O        -2.1530940000       -0.1837850989        0.2597994541
  H        -3.0857038718        0.0631569891       -0.0933049436
  H        -2.3898741371       -0.1941558681        1.1991896099
  O        -3.4828250191        3.7256405664       -2.6863495147
  H        -4.0511315921        4.4885295170       -2.3909463384
  H        -3.3571904192        3.2705245005       -1.7780341041
  O         5.2643607807        6.2774015367        2.0805488972
  H         4.6466138706        6.4986651814        1.3407867637
  H         4.6765419621        5.8741254182        2.7309871451
  O         5.7313412849       -1.7828222120       -3.8892704757
  H         5.4045069683       -1.0990138658       -4.4882985545
  H         6.6717217669       -1.7623114757       -3.8676727120
  O        -5.3766027958        5.6260419397       -2.2425762294
  H        -5.4729526471        6.2476256706       -1.5484382843
  H        -5.3922580791        6.2389320621       -3.0044400860
  O         7.8604759462        0.6773656805       -0.1805762659
  H         8.1576794007        1.5179917902        0.0728231820
  H         7.2973663526        0.7852973454       -0.9806204122
  O         2.0135287371        0.6327904386        1.3116959248
  H         1.3105473073        0.8778234083        0.6803583678
  H         1.9234998991       -0.3570054827        1.4171610739
  O        -5.7482597710       -4.8374403251       -0.2748762015
  H        -5.6662850948       -5.1612448154        0.6266690315
  H        -6.6997869633       -4.8030458516       -0.4720005278
  O        -3.8572505864        3.1195511560        0.2080155870
  H        -4.6659474256        3.5604929498        0.6607845136
  H        -3.0694596371        3.1031214335        0.7913354202
  O         4.9250777781        0.6807284955       -5.3963509432
  H         5.5747404812        1.0721644139       -5.9927509079
  H         4.3087767474        0.2665190991       -6.0388520323
  O         4.3653259702       -1.8294054941       -1.0589958279
  H         5.3297368035       -1.9199023695       -0.9011561801
  H         4.3481428514       -2.3206988124       -1.8619178273
  O         1.6583035984        2.0158767530       -1.4994544299
  H         2.2299929088        2.6822700593       -1.0976467302
  H         1.3972618883        2.2955673993       -2.4084639786
  O        -2.2375759971       -0.8563684125        3.1419303190
  H        -2.1553620571       -1.8175629209        3.0487937343
  H        -3.0523831204       -0.8595418112        3.6251506798
  O         1.6743278357       -8.2161581488        2.0064278647
  H         2.2572878924       -8.7144603284        1.4665285364
  H         2.0739856766       -7.7580264742        2.7993502731
  O         1.6601896485       -3.6807224338       -2.1294629565
  H         2.1225543584       -3.0660476896       -2.7271744022
  H         1.0094808318       -3.1482943606       -1.6513881032
  O        -6.3241587937        3.7540622217        0.9253876330
  H        -6.6826006691        2.8681222660        1.1253045848
  H        -6.7308150887        4.4216926610        1.5001723900
  O         2.5069780250       -5.0267933196       -7.5072753816
  H         1.5317343433       -5.1222077253       -7.3153962964
  H         2.7270266339       -4.0903333873       -7.8038315076
  O         0.8646740146        3.3008617261       -3.6665242377
  H         0.6370786887        2.9877187353       -4.5948004404
  H         0.0385259444        3.7793560676       -3.5335805800
  O        -4.2117340997       -5.4075889245        1.8787370419
  H        -3.7425876503       -4.5961063160        2.2047161111
  H        -3.5321936958       -5.7964286465        1.2863734596
  O         3.6528917676        5.2433533645        4.0063701292
  H         3.3463293823        6.0858629472        4.4461885657
  H         3.4711828046        4.3755114429        4.5560982675
  O        -4.2540082181        1.8782442463       -4.7473585532
  H        -3.4419188921        1.3116243530       -4.5062888889
  H        -4.0018188634        2.6166348738       -4.0824123010
  O         1.6801454660        1.4669464331        4.1171049146
  H         2.3732389591        2.0370241402        4.4378496484
  H         1.9938703787        1.2469415884        3.2021600088
  O        -7.6930852342        1.4446297424        1.7475974004
  H        -8.5794870706        1.0840726197        1.5035374274
  H        -7.2326885137        0.6380063745        1.8529244400
  O        -0.9358596083        1.7942814786        3.6741983819
  H        -0.0013427835        1.6214167225        3.8011686293
  H        -1.4125377712        1.0042557259        3.4166510570
  O        -2.5526319737        5.7406078672       -0.2127922294
  H        -1.6573722356        5.7058378762        0.1730065762
  H        -2.9234321403        4.8140816066       -0.1921003106
  O        -0.7127354106       -1.6367092888       -3.8130738836
  H        -0.7911803122       -1.7145072316       -2.8246051364
  H         0.2155626568       -1.3412289423       -3.9495042412
  O        -6.4029633556        1.2515122377       -2.5399528513
  H        -5.8360267361        1.2552559235       -3.3069457747
  H        -7.1635799819        0.6832664200       -2.6757017719
  O         7.0888509004       -2.2911221919       -0.6124623854
  H         7.2324124826       -3.2719372073       -0.4960975780
  H         7.8881923514       -1.9143419793       -1.0119783451
  O        -1.1591767939        1.8327621605       -1.5120935084
  H        -0.2248062172        2.1545535410       -1.4224179371
  H        -1.2864594123        1.3062883886       -0.7005790902
  O         1.2072127267        5.9773996317       -2.1370001496
  H         1.1201982501        6.9222009715       -2.1210774980
  H         0.3540215981        5.6079010767       -2.4128282422
  O         7.7283058709       -3.3466075375        5.3892385739
  H         8.6274540200       -3.7344785539        5.2414679599
  H         7.4499979927       -3.7895691765        6.2017668716
  O        -1.1710433887       -7.3709781187       -3.2761960713
  H        -1.4611213323       -7.4894338338       -4.1760555874
  H        -1.9709366078       -7.7074746017       -2.7753564808
  O        -3.9323403083       -1.7802690360       -3.7693115891
  H        -3.4705122083       -2.5038409593       -4.2098626694
  H        -3.5147254852       -0.9832299169       -4.0085610304
  O         3.1155430266        4.5998312142       -0.7808594863
  H         2.5351586773        4.9881166842       -1.5042121653
  H         3.7527755193        4.1350826666       -1.3469594276
  O        -3.0037863538       -4.3530995265       -4.5345693505
  H        -2.0875578948       -4.6680406014       -4.7488721819
  H        -3.6306726237       -4.8561363542       -5.0035070139
  O         0.1066989691        6.0922715112        0.5190709273
  H         0.6950874936        5.4721789492        1.0653072623
  H         0.3817914099        6.0213382640       -0.3944374723
  O        -0.3458019060       -4.1372702048       -4.6509302039
  H         0.5601004401       -4.2456022302       -4.2379135838
  H        -0.5695888028       -3.2265075622       -4.3336263861
  O        -6.5976173773       -1.1103634162        1.8316984901
  H        -6.1473058820       -1.2751030651        0.9751531141
  H        -6.8704005699       -1.9560461622        2.2336898694
  O         3.2557583197        4.6791836170       -4.4425640636
  H         3.9188886159        4.5269428064       -3.6786921297
  H         2.4125748969        4.5330880398       -4.0254157539
  O         3.3353191897        0.2582420988       -2.5922605957
  H         2.7038292526        0.8355158924       -2.1322814752
  H         3.5697591695       -0.3937787976       -1.9120775327
  O        -1.8881837737        5.2832352753        5.9930872619
  H        -1.5672986718        4.3401629146        6.1365237926
  H        -2.7261717441        5.2345009542        5.4967072741
  O         0.1001474512       -3.7366322494        0.8139484182
  H         0.2992326351       -4.6648985016        0.6399136699
  H        -0.5123385286       -3.4107623955        0.1738260571
  O         7.0039791610        7.1380486158        7.2062514892
  H         6.3064032205        7.3873763066        7.8480922940
  H         6.7774863090        6.2818396438        6.6506696163
  O        -0.0563724705       -4.9819021610        5.3372299307
  H        -0.6379744233       -5.7533914540        5.2781018667
  H        -0.2241343701       -4.6295996888        6.2117610665
  O        -2.9476630142       -4.4786923541       -1.8814830604
  H        -2.9485636882       -5.2943682251       -1.3455399781
  H        -2.9349466145       -4.6889474566       -2.8006375236
