       6
 i =     1000, time =      200.000, E =       -34.4487926105
  O         2.3902426122        4.2309839989        3.3830237108
  H         1.5511148539        4.3791181164        3.8789737310
  H         2.2379305923        3.5439980979        2.7114886243
  O         5.4475782644        4.2449056621        4.6578344353
  H         5.5238773250        3.4379163525        5.1433347913
  H         4.5402617763        4.2372964057        4.3318144142
