6
Properties=species:S:1:pos:R:3 i=0 time=0.0 E=-34.4504806384 pbc="F F F"
O       -6.15976344      -0.54105419      -2.14466455
H       -5.58770004      -0.61706602      -2.91554370
H       -5.59463392      -0.72026327      -1.38661328
O       -7.19467092       2.26835398      -1.95680755
H       -8.15591464       2.27896048      -1.96160541
H       -6.94695607       1.33293807      -2.02055259
