6
Properties=species:S:1:pos:R:3 i=0 time=0.0 E=-34.4504806384 pbc="F F F"
O      -4.44330361       3.57193802      -3.21454866 
H      -4.31192421       3.99339425      -2.35874313 
H      -3.67310458       3.00992062      -3.34515841 
O      -6.90305562       1.85834427      -3.10357776 
H      -7.53527178       2.12484701      -3.77693058 
H      -6.14733100       2.45696058      -3.20830509 
