     192
 i =     4900, time =     7350.000, E =     -1100.0544073166
  O         5.7815630615       -3.2339694192        3.6881740958
  H         5.7755676785       -4.1620193555        3.4546504220
  H         6.1589050515       -3.0789168924        4.5325308176
  O        -5.2928052726        1.9845010377        5.6324175726
  H        -4.7062445663        1.4839723585        5.0536469005
  H        -4.8170978763        1.7670080284        6.4578023370
  O         6.1721961125        4.4379881634        5.6265287870
  H         5.2512886921        4.4070939184        5.7098079770
  H         6.4893756447        3.5512746376        5.5310557508
  O        -2.4217890351       -0.5995088077       -3.1366986632
  H        -2.2684920982       -0.0403257451       -2.3759792323
  H        -1.6143141530       -0.9784041862       -3.4972191993
  O        -3.6627816525        5.1890348104        4.3107361648
  H        -4.6338610047        5.1196874795        4.4362719528
  H        -3.5844887472        5.9123061408        3.7006668785
  O         8.3731396552       -0.5083910600        4.2451097583
  H         7.9444165598       -1.2461655353        4.6838165538
  H         7.8653273385       -0.3594018053        3.4369323102
  O         5.0348042580       -5.6030121582        0.4319790055
  H         4.6967657103       -4.7997823694       -0.0238816778
  H         4.2883265126       -6.2279199911        0.6385121299
  O        -1.4271045033       -2.5758667903       -1.3224922297
  H        -2.1928461465       -3.1101903416       -1.5330363776
  H        -1.7244979510       -1.7310029211       -0.9927509930
  O         3.3013428336       -2.1546075064        3.7472165546
  H         4.2529832263       -2.4826951669        3.6487449823
  H         2.9870020295       -2.2451418631        2.8331078934
  O         3.2536572198        4.0874602111        6.0921620927
  H         3.2159933366        3.0937287433        6.1116707244
  H         2.8450235673        4.4050669759        6.9445268953
  O         5.5999555507       -4.2419141719       -4.3129331156
  H         5.6938050016       -3.8919344495       -3.4068364496
  H         4.6681619334       -4.3297598873       -4.5807122314
  O         2.6096520205       -2.7150078514        1.2426724895
  H         1.7448422207       -2.8033908676        0.8092482956
  H         3.2084062255       -3.3724545341        0.7254958113
  O         2.9769356472       -4.4316392460       -5.0367323574
  H         2.4092634502       -5.1328859566       -4.7272436775
  H         2.7571559347       -4.4045119161       -6.0090212343
  O         4.2583249658        4.3672840257       -2.2880928736
  H         4.5291445730        3.6418515875       -2.8565879566
  H         5.0058268203        4.9431921714       -2.2361570007
  O         2.5582473196        0.0307916293        5.0133442340
  H         2.7734332813       -0.6696975612        4.3178608755
  H         1.7568299010        0.5116491859        4.6947514620
  O        -0.7769634770        2.3490759692        6.3598108940
  H        -0.5980553761        1.9980166119        5.4652584430
  H        -1.4277646463        1.8344964380        6.8884992516
  O        -1.0196579951       -3.4008258946        2.6397562672
  H        -0.3069576677       -3.7330535043        2.0573331731
  H        -0.9222999334       -3.8533680225        3.4706780430
  O        -1.8560597592        3.3892713533        2.4417077043
  H        -1.2592108992        2.8338093060        2.9867955818
  H        -2.5551527790        3.7742205060        3.0212920490
  O         2.0146147760       -0.7546010643       -4.9163331902
  H         2.0360016049       -0.5693062231       -5.8659472674
  H         2.4333460303       -0.0281770411       -4.4732416326
  O        -1.1835388368        0.1253006692        0.2577707565
  H        -1.4184449558       -0.1712068941        1.1841823454
  H        -0.2355676770       -0.0613048916        0.0782026902
  O        -4.4215295786        2.8415492915       -2.7567655069
  H        -4.7814408994        3.6128062707       -2.2977632453
  H        -3.6930921507        2.4359339865       -2.2599273035
  O         6.0325520270        6.3859547471        2.9725776412
  H         5.7556901724        6.6467197980        2.1020701511
  H         5.1047144742        6.2287918754        3.3566360471
  O         6.0673722738       -0.3703784938       -3.7557370672
  H         5.8776900631       -0.4449130983       -4.7226547027
  H         6.6037374050       -1.1951731190       -3.5987728036
  O        -5.7075515144        5.3446977094       -2.1942664535
  H        -5.2091579138        5.5602852480       -1.4336288521
  H        -5.2139047794        5.6111950646       -2.9514001842
  O         5.8762967049        1.6783584000       -0.6609587294
  H         6.6899354301        2.0217008482       -0.2097149833
  H         5.5920245646        2.3480526639       -1.3294457114
  O         1.4870329982        0.1356997569        0.0403160245
  H         1.4025336535        0.6612928793       -0.6976932576
  H         2.2368245280       -0.5104564321       -0.0696451901
  O        -4.8605445910       -5.5973090734       -0.0954244909
  H        -4.4760974608       -5.2837901350        0.7619292212
  H        -5.8198748626       -5.6746120222       -0.0024409555
  O        -4.4034133799        2.9406593917        0.4280496692
  H        -4.8682884919        3.1058458226        1.2393492678
  H        -3.5801354925        2.5700083700        0.7699982139
  O         5.4217407737       -0.0935429533       -6.3540056235
  H         5.9101400560        0.6811905485       -6.6565276298
  H         4.5634588565       -0.0092570863       -6.7743613061
  O         4.4446479126       -3.4140100881       -0.9541599085
  H         4.8702961419       -2.5925101972       -0.7776042125
  H         3.7942078318       -3.1906611896       -1.6045658609
  O         1.7174241180        2.1109493442       -2.1206109305
  H         1.8755370978        2.6931829753       -1.3494558711
  H         1.0470265763        2.6376944958       -2.6289519776
  O        -1.8067374829       -0.6923700465        2.6536209540
  H        -1.3721584554       -1.5500801192        2.8239686806
  H        -2.5464693106       -0.6892813737        3.3089616467
  O         2.2550803733       -8.5187821390        2.4857888891
  H         2.4662312272       -8.3519327087        1.5212856008
  H         2.6807146940       -7.7926186691        3.1291877122
  O         2.2784924040       -2.4885464731       -2.6140128430
  H         2.1699029211       -2.6234134410       -3.5483858562
  H         2.6301202074       -1.5401737740       -2.6373519908
  O        -5.8541490677        3.5080529521        2.5957989708
  H        -6.4806229038        2.7601735402        2.8418274942
  H        -6.3337335929        4.3410269421        2.7888152578
  O         2.5890167803       -4.5523693904       -7.6134380569
  H         1.6738800024       -4.7165989967       -7.8683283972
  H         2.8048091983       -3.6109247337       -7.8325210688
  O         0.2145187701        3.4863337498       -3.8395092641
  H         0.0009623997        3.1504606693       -4.7174795782
  H        -0.5396775492        4.1534736112       -3.6938601999
  O        -3.2394765199       -5.2706749721        1.9722640788
  H        -2.6621652340       -4.5330358170        2.1786214565
  H        -2.6607814790       -6.0485903079        1.7597643700
  O         3.5218015665        5.5590469802        4.0694897323
  H         3.1856005729        6.4679026789        4.1855369029
  H         3.4370446437        5.0588238788        4.9470140309
  O        -3.0343601139        1.5717166973       -4.7815591693
  H        -3.0092697313        0.8734109811       -4.0873525865
  H        -3.4107917227        2.3508811526       -4.3409982911
  O         1.8740235364        1.3035878842        2.5110122691
  H         2.1187432580        2.3037451226        2.6363071860
  H         1.7523120281        1.2088129169        1.5595183624
  O        -7.5552944199        1.5746416078        2.8543250750
  H        -8.4415912736        1.3288009356        3.0936914081
  H        -7.2449882949        0.7516880890        2.4892581134
  O        -0.5076404480        1.5108791138        3.7490885427
  H         0.3223433365        1.3580694975        3.1724700602
  H        -1.0282794655        0.6786860259        3.5029000507
  O        -1.8006717571        4.7713843850        0.0543008999
  H        -1.8116175211        4.1653881667        0.8583528497
  H        -2.6159902243        4.4603698503       -0.3759954111
  O        -0.2055825846       -1.6118843553       -3.9877339005
  H         0.2404689516       -2.0151757067       -3.2267916975
  H         0.5067267985       -1.0585327349       -4.4707720411
  O        -6.8822479810        2.5431927605       -3.8081035901
  H        -5.9629017655        2.6443851411       -3.4273155106
  H        -6.9410086614        1.6000187343       -3.8642630061
  O         6.2571782018       -0.9793807087       -0.8086530557
  H         6.8189366214       -1.3666336518       -1.4422119872
  H         6.1661382836        0.0184029119       -0.9005191398
  O        -2.1115763516        1.9910168170       -1.5279604825
  H        -1.4023826164        2.5356915909       -1.8180925341
  H        -1.8320707605        1.4142373435       -0.7350591318
  O         0.4215889027        5.8203315025       -1.0356365239
  H         0.1507758338        5.9941786732       -1.9664891064
  H        -0.3778845547        5.4559299502       -0.6304650443
  O         7.0756685065       -2.4967440329        5.7717014537
  H         7.4016925164       -3.3223761115        6.2290260180
  H         6.4546363862       -2.0640209209        6.3415354643
  O        -1.1023684051       -6.4306277462       -3.6142439363
  H        -1.4755753938       -6.7311378179       -4.4943456109
  H        -1.7470737467       -6.0249570009       -3.0147856225
  O        -4.7508798111       -2.3739489033       -3.1077040211
  H        -4.6670636459       -3.0522434280       -3.8303739765
  H        -3.9049557010       -1.8682302835       -3.1282226782
  O         2.8338046348        4.8322093918       -0.0805158578
  H         2.0247358951        5.2648572710       -0.4082495220
  H         3.3346448506        4.6504179085       -0.8875583128
  O        -3.9473604166       -4.2815888564       -5.0930613111
  H        -3.0173238133       -4.2224899545       -5.1447245311
  H        -4.2297653858       -5.2382012567       -5.1082871572
  O         0.1793885851        5.1051435587        3.7294191326
  H        -0.5806646862        4.7638532216        3.2410360631
  H         0.9545771279        4.8340012624        3.2078965194
  O        -1.1897841923       -4.1880952874       -5.2349731212
  H        -1.0553545470       -4.8126063176       -4.5093554767
  H        -0.7669638165       -3.3849315795       -4.8389931906
  O        -5.9320605677       -0.9533380343        2.1722696053
  H        -5.6647976874       -1.0259966619        1.2625765078
  H        -5.9340428402       -1.8794480147        2.5253222748
  O         2.3954601221        5.0643351235       -4.1909561475
  H         3.1156764366        5.0458448154       -3.5546513910
  H         1.5948521258        4.7006016043       -3.7983050583
  O         3.4429755197       -0.1620382781       -2.7474827908
  H         3.1999407131        0.7554136121       -2.5014796070
  H         4.3664273076       -0.1065295762       -3.0934174881
  O        -1.7604820280        4.9508874170        6.5707929210
  H        -1.4706877440        4.0325324501        6.3308180012
  H        -2.3966546738        5.1750164228        5.8889105037
  O         0.2624755315       -3.9239601757        0.2876923402
  H         0.2557856853       -4.8477207105       -0.0818313289
  H        -0.3825205195       -3.4383944146       -0.3154333645
  O         6.9177090655        6.0115443306        7.6130896023
  H         6.1402522591        6.4813543639        7.2593641894
  H         6.8031498308        5.2300964133        6.9814944851
  O        -0.0949767772       -4.9015904590        4.5826149587
  H        -0.0844849216       -5.8497015641        4.3563977798
  H        -0.3050753347       -4.7588621944        5.5473629560
  O        -3.1599577001       -4.9792374407       -2.0600632497
  H        -3.7645586703       -4.9609690435       -1.2374401631
  H        -3.6056716978       -4.5919557457       -2.7937645694
