6
Properties=species:S:1:pos:R:3 i=0 time=0.0 E=-34.4504806384 pbc="F F F"
O       -4.88605760      -0.19736360       4.35000000
H       -5.05316724      -0.89719456       3.71000000
H       -3.95316212       0.01942900       4.25600000
O       -6.53088002       2.20730523       3.63500000
H       -7.10385584       2.45815122       4.36500000
H       -6.04101348       1.43069994       3.94700000
