6
Properties=species:S:1:pos:R:3 i=0 time=0.0 E=-34.4504806384 pbc="F F F"
O       4.06891105      -2.71228209       4.35000000 
H       4.61545590      -2.24433154       3.71000000 
H       3.18675526      -2.33932878       4.25600000 
O       3.98617146      -5.62450241       3.63500000 
H       4.30227507      -6.16422781       4.36500000 
H       4.04633825      -4.70827920       3.94700000 
