6
Properties=species:S:1:pos:R:3 i=0 time=0.0 E=-34.4504806384 pbc="F F F"
O       -0.85144888       4.81534485       4.35000000
H       -1.56737787       4.88700152       3.71000000
H       -0.51139270       3.91999308       4.25600000
O        1.31066724       6.76806779       3.63500000
H        1.48233059       7.36952992       4.36500000
H        0.60684680       6.17838840       3.94700000
