     192
 i =     2900, time =     4350.000, E =     -1100.0701451076
  O         5.7479981199       -3.5589756405        4.5244816154
  H         6.5894261849       -3.8472130920        4.1714270945
  H         6.0712808093       -2.7487026489        5.0183895650
  O        -3.0552185576        2.0395017415        5.2138524205
  H        -3.3066614931        1.1351783276        4.8865386753
  H        -2.2343465898        1.9666703703        5.7426207398
  O         7.1885058104        3.7239669149        5.5938970543
  H         6.7691852928        4.0788032494        4.8530314765
  H         7.8815689485        3.1278071556        5.2705574969
  O        -2.6905995959       -1.0652236235       -2.9514209511
  H        -2.4548452812       -0.9658864074       -2.0048574075
  H        -1.8280349523       -1.0633610237       -3.4411386964
  O        -3.8001935024        6.2497199887        5.5121257200
  H        -4.3640914677        5.4888471045        5.6190393699
  H        -3.8591179315        6.5681270152        4.6035634983
  O         8.4504547882       -0.1422434303        3.8208932743
  H         7.8030076410       -0.6006892273        4.3902058932
  H         7.9880237757        0.2218821466        2.9922895175
  O         3.9617121828       -5.7070201218        0.8984292093
  H         3.6766193412       -4.7387403004        0.9405782566
  H         3.6593225719       -6.1228208077        0.0254261960
  O        -0.2181163143       -3.7372327733       -1.4442535978
  H        -0.9358629145       -4.1490238787       -1.8965500266
  H        -0.5831320608       -2.8722994416       -1.1542002732
  O         3.2523528052       -2.0994997986        3.5085427552
  H         3.5527992513       -2.8571313326        4.0230839362
  H         2.9581974381       -2.4940535330        2.6296848196
  O         4.0039286680        2.8425604774        5.2673240918
  H         3.9500234169        1.8720675656        5.0974821916
  H         3.5979925226        3.0355127854        6.0974286592
  O         5.0396099612       -4.6869390480       -3.5988898595
  H         4.9350382248       -4.5398814612       -4.5218070288
  H         5.7531465255       -4.0889567714       -3.2985924555
  O         2.6601675101       -3.5224545312        1.1802488837
  H         1.8290932895       -4.1249469679        1.3201837224
  H         2.5766144936       -2.9572057004        0.3592060532
  O         2.0876670749       -5.3046646135       -5.4664671920
  H         2.0261019378       -6.2904985610       -5.3287134501
  H         1.3726755096       -4.9714908674       -6.0426107593
  O         4.3184772850        5.5011553333       -2.6162179743
  H         4.9426874719        4.9405977652       -2.1559225566
  H         4.7591129898        6.3058247194       -2.8841848147
  O         2.3866751741        0.2574696068        4.3076401827
  H         2.6715920785       -0.6611705000        4.0613203172
  H         2.0321764106        0.5722943934        3.4747217204
  O        -1.0416486033        2.6469596793        7.1437232943
  H        -0.3878875857        2.0339377196        6.8922597650
  H        -1.6485524454        2.2051620898        7.8021206335
  O        -1.0880676858       -3.7479664897        2.6206487284
  H        -0.5883093895       -4.1432043736        1.8886717328
  H        -0.8319135951       -4.2301344195        3.4566088699
  O        -2.1037695947        3.9329266148        3.1466385306
  H        -1.8283377090        3.1684255837        2.6064576468
  H        -2.3793451010        3.5388725187        4.0039993443
  O         1.0448669877        0.8115514400       -5.7953061977
  H         1.4939310693        0.6088589927       -6.6775878653
  H         1.6358155875        1.3225289617       -5.2329315417
  O        -1.0521350785       -0.9485918857       -0.5910409395
  H        -1.5598667042       -0.9634246803        0.2284132135
  H        -0.1792992740       -0.5414686990       -0.4299720723
  O        -3.8786787231        3.5314882282       -1.7392864341
  H        -3.7259184500        4.4806030554       -1.9624934971
  H        -3.2926660018        3.2360995829       -1.0488584245
  O         6.1944775212        3.8885508012        1.1290474600
  H         5.7352636023        3.6189814521        0.2700880067
  H         5.5452545079        4.3360116801        1.6590150439
  O         4.8677256847        1.4308698577       -3.1592244593
  H         5.4660832980        1.6059065689       -3.9558956087
  H         5.0249104397        0.5170621722       -2.8605827550
  O        -4.5305242210        6.4215455246       -2.9605418984
  H        -5.2244122458        6.3557113356       -2.2314840713
  H        -4.9630586442        6.0106088853       -3.7038686988
  O         5.2802663780        0.5905923938        0.4182222435
  H         5.0628850435        0.1103857370        1.2620315427
  H         6.1343882959        0.9210972479        0.6201746109
  O         1.6983232797        0.1302173529       -0.4238108647
  H         1.8670389829        0.9683955815       -0.8313915399
  H         2.2758525121       -0.5838643593       -0.8407223733
  O        -5.9562671349       -6.2125189524       -0.2624079400
  H        -5.7248780628       -7.0636350534        0.0755283116
  H        -6.8316198147       -6.0052605520        0.1606833129
  O        -3.9462410685        5.1593688241        1.9229931711
  H        -4.7089716175        4.7561875616        2.3901489187
  H        -3.2207193928        4.7280856348        2.4227856945
  O         6.6245935942        1.6099519142       -5.0626443811
  H         7.6003987777        1.5222255641       -4.8339617248
  H         6.5535966958        2.4196260930       -5.6547802256
  O         2.9862804069       -2.0085331047       -1.1744425976
  H         3.7636833676       -1.5659327704       -1.4002951355
  H         2.7794733759       -2.3866749326       -2.0387024051
  O         3.0275724132        2.3259654933       -0.8977064754
  H         3.9083218445        2.2777850043       -0.5845356962
  H         2.7572245758        3.3027169917       -1.1170210313
  O        -2.0466489987       -1.1691667015        2.1533889329
  H        -1.5722695258       -1.9543957796        2.4433512386
  H        -2.5176535717       -0.9114148047        2.9867648087
  O         3.0046387421       -8.4389255704        1.6555042341
  H         3.0516963418       -7.9913725779        0.8352086049
  H         3.3568431739       -7.8334916056        2.3103447329
  O         1.6641181194       -3.3085496346       -3.4519406148
  H         1.0256039315       -3.5642928437       -2.7366762248
  H         1.8707795723       -4.1101356229       -3.9685558885
  O        -4.3992400731        1.6250222247        1.2638805280
  H        -3.6818573065        1.7252375700        0.6866907155
  H        -4.9360221954        2.4088033692        1.2364926647
  O         4.6737230695       -5.2448659324       -6.3429842731
  H         3.6770223045       -5.1156989817       -6.2278539964
  H         4.9643837572       -4.5097424390       -6.8519890365
  O        -0.0421200845        2.9397614532       -2.1485142871
  H        -0.1146241200        2.7267266540       -3.0980401574
  H        -0.1982846623        3.8787137008       -2.1432254066
  O        -4.2885469428       -4.9027338929        3.1407347893
  H        -4.0496746423       -4.1639211088        2.6015085581
  H        -4.0994676643       -5.6744220071        2.5512349164
  O         5.2183784090        4.9649506306        3.5912908544
  H         4.9571665691        5.7797958940        4.0353113802
  H         4.8490043236        4.2755823880        4.1359418859
  O        -3.1589869584        1.6071413342       -3.6841694519
  H        -3.1991307888        0.7053680899       -3.3458593269
  H        -3.5144089074        2.2344468848       -3.0129065162
  O         1.6548108909        1.5156961119        1.9550537095
  H         2.2079492068        2.3252247562        1.9183295168
  H         1.8281278163        1.0591322689        1.0824805251
  O        -6.8408550858       -0.7318434852        2.8506245615
  H        -7.7326281604       -1.1813916063        3.0389245315
  H        -6.2333516516       -1.3966493958        2.4180707977
  O        -0.8698352741        1.7212398639        2.0389555800
  H         0.1071256948        1.7477555735        2.1289209449
  H        -1.2595262574        0.8291966635        2.2185825377
  O        -2.4834771150        5.8597266559       -0.1437718304
  H        -3.0730614888        5.5785919376        0.5987288444
  H        -2.6243077463        6.7739492244       -0.3295216975
  O        -0.3659533520       -1.3284736414       -4.5372205285
  H         0.4038656963       -1.9217249739       -4.2486139673
  H         0.1594718317       -0.6299933983       -4.9820000279
  O        -6.7616205838        3.5253299794       -1.6377905981
  H        -5.7569009284        3.4621842351       -1.7517105035
  H        -7.2203411231        2.8280344231       -2.0919255349
  O         5.2837845191       -0.9937401885       -1.8025597602
  H         6.0396179134       -1.5268161805       -1.9761539037
  H         5.4839253950       -0.4871429990       -1.0107972801
  O        -1.9069868341        2.1898119473       -0.1880427233
  H        -1.3307087375        2.4128697620       -0.9323207184
  H        -1.3010635079        2.1317693082        0.5964446792
  O        -0.1921169903        5.4748328354       -1.6480577613
  H        -0.8050815406        5.9755751533       -2.2704760494
  H        -0.7574910539        5.4081637291       -0.8388485056
  O         6.9308516207       -1.2921223496        5.9116204664
  H         7.2257227797       -2.1071181531        6.3913035709
  H         6.7718057847       -0.7144783417        6.6214936391
  O        -1.7620527589       -5.9251059385       -3.4574686228
  H        -1.5327839770       -6.5584105206       -4.1876700837
  H        -2.7817088058       -6.0718555560       -3.3182974857
  O        -4.8448240572       -2.7346372330       -2.9931347796
  H        -4.9282581993       -3.1435119251       -3.9266484282
  H        -4.1554031670       -2.1083657934       -3.0645575891
  O         2.5892831574        5.0130534300       -0.8928447334
  H         1.7695527971        5.3859171356       -1.1588525557
  H         3.2320049349        5.3594026722       -1.5523271667
  O        -4.6765295454       -3.7024362442       -5.6274192837
  H        -3.6985460115       -3.6343022354       -5.5528344287
  H        -4.8063977504       -4.6018722799       -5.9388043474
  O         0.2402082094        4.8270146817        1.4633470565
  H        -0.4356074232        4.5819439889        2.1187446981
  H         1.0947368384        4.4247614307        1.7859136839
  O        -2.1838898329       -3.5626704351       -5.2580291613
  H        -2.1385335252       -4.2158298097       -4.5310803392
  H        -1.7860686922       -2.7266234302       -4.9880370501
  O        -4.5723455819       -2.4324522872        1.0896971393
  H        -3.7023006449       -2.0040963472        1.2971782386
  H        -4.5068854714       -2.9877642919        0.3016461648
  O         2.5655931366        4.5534263194       -4.7713262118
  H         3.2119595837        4.9226415295       -4.1499206173
  H         2.3331001837        3.6773893867       -4.4792627647
  O         2.3962587078        2.0517648272       -3.7391860415
  H         1.9285907568        2.1256230942       -2.8523696748
  H         3.3044160197        1.8546002284       -3.4776663091
  O        -1.4404069664        5.2088118132        6.7022517396
  H        -1.3198158007        4.2873361250        6.6056588489
  H        -2.3401522865        5.3169515259        6.3278657603
  O         0.5704496191       -5.0474077518        0.8947982819
  H         0.4943816011       -6.0253156712        1.0536849646
  H         0.3123013571       -4.8366025733       -0.0458077171
  O         6.2340069748        5.0964899554        7.7032128729
  H         5.7179200234        5.7639618176        7.2877707840
  H         6.7526661409        4.6371334285        7.0340802042
  O        -0.3317064209       -4.8186439878        5.3500768228
  H        -0.6004094183       -5.7725400729        5.4703710497
  H        -1.0270316281       -4.4268583335        5.9172787440
  O        -4.1366961882       -4.1331987278       -0.8044017297
  H        -4.6682529501       -4.8504691983       -0.4898874360
  H        -4.2497093466       -3.8879745111       -1.7497435870
