6
Properties=species:S:1:pos:R:3 i=0 time=0.0 E=-34.4504806384 pbc="F F F"
O        2.85642876      -3.96904598       4.35000000
H        3.53254916      -3.72297645       3.71000000
H        2.16157016      -3.30990675       4.25600000
O        1.75568418      -6.66649558       3.63500000
H        1.86198548      -7.28287617       4.36500000
H        2.13395219      -5.82983656       3.94700000
