       6
 i =      275, time =       55.000, E =       -34.4449589872
  O         2.7436961554        4.3034086488        3.3127830686
  H         2.0514098486        4.9382180769        3.5243530197
  H         2.6613540030        4.1651097933        2.3155188008
  O         5.9395947236        4.2934949809        4.9177411257
  H         6.2371907415        3.4053907494        5.2093397399
  H         5.2251207277        4.0974452837        4.3393559876