     192
 i =     1100, time =     1650.000, E =     -1100.0413066948
  O         5.5428301439       -4.3689437230        4.4249679504
  H         6.4485921951       -4.8283180592        4.2760384794
  H         5.2786613211       -4.3434058917        5.3798988523
  O        -4.4265080013        2.7206107113        4.5410986655
  H        -4.2557440763        2.1436323906        3.8122577495
  H        -4.8796339305        2.2306826765        5.2413719353
  O         3.9787004095        2.1933088910        4.5488610388
  H         3.3178140257        2.7547124620        5.0187044585
  H         4.4425430627        2.7371270317        3.8920858769
  O        -2.6831519793        0.1587273078       -4.5001480394
  H        -2.3466660788        0.0906069385       -3.5726357243
  H        -1.9436306921       -0.0762343316       -5.0745706752
  O        -3.2327497822        4.9620168553        5.6742940958
  H        -3.7239809350        4.3054561504        5.1392034326
  H        -3.4328073367        5.7463546350        5.1182542479
  O         8.5715525785        1.0793839677        2.2421530778
  H         8.1073582674        0.2156314427        2.1500624879
  H         8.2922980928        1.6949985253        1.5219490459
  O         4.0892632983       -5.0544945361       -0.5445251474
  H         3.7297807255       -4.3969710430        0.1328281133
  H         4.2328609738       -4.5314835291       -1.3688892340
  O        -2.0415358597       -3.1785625438       -1.5690208429
  H        -2.6684037599       -2.7509991175       -2.1862584079
  H        -1.8318697992       -2.4659271874       -0.9402855116
  O         4.5135995327       -2.1110254727        3.0961094085
  H         4.9111665668       -2.9637249783        3.3784994602
  H         3.9717565801       -2.4203896872        2.3017334608
  O         2.3099529145        5.2435856491        6.0817795396
  H         1.5980858137        4.6085165118        5.7655155093
  H         2.2043392240        5.2835786524        7.0337487793
  O         4.4921066081       -3.4866248843       -2.6257645255
  H         4.5419425838       -3.8148420127       -3.5278537251
  H         5.2982599969       -2.8408946396       -2.5522855085
  O         2.6893084204       -2.8828172915        0.9686267131
  H         2.0159217577       -3.5485095111        0.9778723969
  H         2.5124754114       -2.6280846711        0.0496771433
  O         1.5759521412       -4.5468460703       -4.9102892937
  H         1.6250339439       -5.3784570961       -4.4043331789
  H         1.0411707874       -4.7909828182       -5.6693832289
  O         4.9817312743        5.6961933868       -3.0173471423
  H         5.2623823177        4.7987533846       -3.0732204289
  H         5.0739904264        5.8847086337       -2.1006966929
  O         2.5665996019       -1.0432392114        4.6529165217
  H         3.2061866693       -1.5203749268        4.1445917229
  H         2.3313149168       -0.3994583972        3.9977820295
  O         1.0550279973        2.8046541366        5.5576144308
  H         1.3597047758        2.0608630133        6.1509024331
  H         0.4829348099        2.4211268744        4.8490748609
  O        -0.3962095782       -3.1398878087        3.5739159224
  H         0.4050497013       -2.6178404749        3.3987117674
  H        -0.2144480602       -3.8972506279        4.2367248262
  O        -1.5164974275        3.3010341812        2.2937538531
  H        -1.0320656167        2.5886362461        2.7104556426
  H        -2.4110725912        3.0164364560        2.5241382080
  O         2.0141204287        0.5298118117       -5.7484858508
  H         2.4849849460       -0.1037993258       -6.3977956273
  H         2.1782233516        0.3551728988       -4.8336380772
  O        -1.1767864775       -1.5051271261        0.3450744412
  H        -1.6883485775       -1.2232830463        1.1115999736
  H        -0.8608090522       -2.3811095397        0.5359689524
  O        -3.7267511439        3.1324761828       -2.4658336828
  H        -3.7521955629        4.1402745852       -2.4882642899
  H        -2.7985213326        2.8898839562       -2.8896189124
  O         4.8936837264        4.0761028016        2.7746404532
  H         4.6372182138        3.7559023392        1.8300564878
  H         4.3596422235        4.8050846904        3.1632616451
  O         5.0676297625        0.3111396189       -3.7608025680
  H         4.9051988973        0.0315785308       -4.7356423396
  H         5.5416068384       -0.3677537435       -3.3261232997
  O        -3.8194461915        5.8510217346       -2.6620240042
  H        -4.3691438268        5.8577990431       -1.8518154388
  H        -4.3956826751        6.0758936798       -3.4227414807
  O         6.2857774479       -0.0406777733        0.0169610840
  H         6.5791646867       -0.4154627602        0.8467947954
  H         5.3322785642        0.0333263485        0.2613885773
  O         3.6577369689        0.5660708018       -0.0832340058
  H         3.8794806390        1.5238734145       -0.0747673597
  H         3.0580387876        0.3626268007       -0.8081208956
  O        -5.5373302877       -6.0881385126       -0.1713034077
  H        -5.3472690868       -6.7697630764        0.4906788894
  H        -6.3859096174       -5.7165581889       -0.1057446219
  O        -4.9594288425        4.6456212676        1.8620854637
  H        -5.6830115504        4.2665552628        2.3878767607
  H        -4.6791171367        3.9192184493        1.2818671295
  O         5.7928143565        0.3844568347       -6.7185650041
  H         6.0298201586        0.9131648328       -5.9021181248
  H         5.2158822212        0.8097294318       -7.3705476266
  O         2.3426982547       -2.0232732957       -1.5878437184
  H         3.0131003303       -2.4449652275       -2.1482652162
  H         1.4616458422       -2.1761796541       -2.0060901605
  O         4.3700895905        3.2488150682        0.1068337962
  H         5.0762896233        3.1432089229       -0.5572360969
  H         3.7503625209        3.7508500586       -0.3754786195
  O        -1.6068048324       -0.6996506491        3.1897835742
  H        -1.2891725377       -1.5275194839        3.6629601254
  H        -2.5763354758       -0.7540969301        3.2872734947
  O         1.3723148094       -5.7462431640        2.1205260968
  H         1.9116812528       -6.2793768803        1.5431556384
  H         1.9537335897       -5.7106383509        2.8909815634
  O         0.0685873618       -2.6601445021       -3.2477223325
  H        -0.5052832846       -3.0880165141       -2.5647539483
  H         0.5927010091       -3.3845130362       -3.6828900231
  O        -4.4914272245        2.5719781546       -0.0242186198
  H        -3.8868906923        2.7158505317       -0.7963827781
  H        -5.0225816549        1.7989488989       -0.3391816519
  O         4.5895423036       -4.2677429829       -5.1317129818
  H         3.6741315788       -4.4708704930       -5.1361675574
  H         4.6212719864       -3.3548900970       -5.3492446762
  O        -0.8438975450        2.4643067584       -3.1131230385
  H        -0.9013602666        2.9480692074       -3.9664905053
  H        -0.3038692450        3.0920091217       -2.5941983061
  O        -4.3953100501       -5.5380631542        4.0305490222
  H        -3.7692513292       -4.9483480477        3.5147544888
  H        -4.4168510968       -6.3942664475        3.4729682069
  O         3.4724406833        6.1907178179        3.9086539148
  H         4.1580481727        6.8252998856        4.0790708214
  H         3.2252789574        5.9427648458        4.8185869192
  O        -4.8257624242        2.2666962985       -4.9420283311
  H        -4.2863409788        1.3808231446       -4.9371965843
  H        -4.4026108485        2.7015949031       -4.1682095448
  O         2.3627600805        0.7126250049        2.3186102739
  H         2.8115561984        0.4923627257        1.4516825801
  H         2.9506264972        1.1943767617        2.8905712410
  O        -4.9962826439       -1.4885204486        2.4876183415
  H        -5.8967024778       -1.5527213299        2.8292399345
  H        -4.6414034213       -2.3719083003        2.6413749813
  O         0.0721216718        1.3854924582        3.4987169206
  H         0.8893737764        1.2102736514        2.9645749759
  H        -0.3075809050        0.4719670681        3.5335515944
  O        -2.1663341508        4.9027169077       -0.0866705124
  H        -2.0873960048        4.5903664463        0.7979213435
  H        -2.6923820111        5.7429676718       -0.0262610993
  O        -0.4421908961       -0.9715766979       -5.3806141393
  H        -0.3988512819       -1.4012102636       -4.4801444481
  H         0.4030658761       -0.5359656230       -5.5619968040
  O        -6.7449279408        2.8630148640       -2.5317164719
  H        -5.8095951595        3.0428485009       -2.6675114011
  H        -6.7867094633        2.1516163446       -3.1929677041
  O         6.2378853487       -1.5452379848       -2.2169405050
  H         7.0648416401       -1.6577951544       -2.7286499951
  H         6.4735292728       -0.9783296121       -1.3809594141
  O        -1.6496279567        0.1459970273       -1.9226761088
  H        -0.9854551364        0.7792638772       -2.0304777101
  H        -1.4141504021       -0.3312993049       -1.1119977626
  O        -0.0397637039        4.8676143944       -1.7712192094
  H        -0.3813621066        5.5951651142       -2.3465039835
  H        -0.7322605140        4.7253575751       -1.0646453298
  O         5.6470735964       -1.8395526054        6.8071422791
  H         6.4419035611       -2.4116116322        6.7241274879
  H         5.7826949841       -1.0757610712        6.1678098585
  O        -1.1680238384       -5.8254042363       -3.5229500888
  H        -0.9905960563       -6.5066155772       -4.1697522327
  H        -2.0853831983       -5.9349994344       -3.1990423456
  O        -3.7619697876       -1.9697609347       -3.4343033457
  H        -3.9288031878       -2.4901824460       -4.2478544383
  H        -3.3313612652       -1.1733604016       -3.9245444285
  O         2.2195832247        5.0099658830       -0.2394911786
  H         1.3177224813        4.8437089863       -0.6103294976
  H         2.5914865629        5.7895189489       -0.6180064069
  O        -4.3298822755       -3.6328901710       -5.4352483492
  H        -3.3541283537       -3.6380570026       -5.6354859057
  H        -4.5745206713       -4.5448531703       -5.2818493674
  O        -1.1142911316        5.8504359076        3.1021166110
  H        -1.3480805683        4.9002953537        3.0457971678
  H        -0.2838412847        5.9023035793        2.6603616129
  O        -1.6991670979       -3.6164433553       -5.6286298891
  H        -1.4405650404       -4.1009940483       -4.7788148456
  H        -1.1097196450       -2.8494043605       -5.7430019519
  O        -3.0007782785       -3.6647014123        2.7675012607
  H        -2.0939542676       -3.6234629249        3.0540360523
  H        -2.8639405001       -4.0390869779        1.8585019067
  O         2.2851167574        5.7035592911       -3.3404485355
  H         3.2548181477        5.6812823244       -3.1276705215
  H         1.7996140400        5.4096807631       -2.5833180870
  O         2.3555726366        0.3772574528       -2.9265645425
  H         2.2133994464       -0.5446308794       -2.5963317168
  H         3.3022275856        0.5021558271       -3.0248461991
  O        -0.8043152441        4.1901702096        7.2226893427
  H        -0.0980145965        3.9147124367        6.6349640941
  H        -1.6151424180        4.2838722216        6.6307897643
  O        -0.0762478469       -4.1093459598        0.4868301669
  H         0.1730712486       -4.5744985035        1.3319590110
  H        -0.9369247916       -4.3540810582        0.1738046656
  O         7.4189009205        5.6886539007        7.5610361400
  H         6.6136764488        5.9204884129        7.0974117041
  H         8.0542886691        5.4214182023        6.9212444821
  O        -0.3293199774       -5.0953868468        5.3401686923
  H        -0.7444972582       -5.9092975763        4.9177350833
  H        -0.9197682024       -4.5733989392        5.9646096200
  O        -3.3290656433       -4.8276222299        0.4165663411
  H        -4.2677919794       -5.0582758844        0.2539600158
  H        -3.1837310591       -4.1139359414       -0.2217222574
