     192
 i =     7000, time =    10500.000, E =     -1100.0592219233
  O         5.8237456288       -3.6558929557        3.7126362586
  H         6.0823799524       -4.2574798068        3.0170305624
  H         6.5578206365       -3.5139462301        4.3402769630
  O        -5.9504156851        2.6065317861        5.9296447918
  H        -5.3386730825        2.3123941371        5.2137705824
  H        -5.6319091088        2.1505321150        6.7872000271
  O         6.2182155156        5.3191459956        5.8159129706
  H         5.5974593733        5.4820226041        5.0978749301
  H         6.3907229099        4.3713177665        5.8823931986
  O        -2.2113264795        0.7881535992       -3.7953269988
  H        -1.8277374705        1.2366580210       -3.0535395674
  H        -1.5025884330        0.1650960112       -3.9759940275
  O        -4.4785224147        5.1652638976        3.4106403019
  H        -5.3597146749        5.3361565321        3.7159012318
  H        -4.2488579870        6.0298577159        3.0242839264
  O         7.6171674563       -0.6822561955        4.7430913005
  H         7.8685439759       -1.5839249073        4.9716596208
  H         7.2534982224       -0.7930548926        3.9030388689
  O         3.3532216126       -4.8949701313       -0.2083910961
  H         3.2223378311       -4.2440577909       -0.8924984740
  H         3.1670705342       -5.7389108086       -0.5705803638
  O        -1.0786857447       -2.3132193617       -1.0633984427
  H        -1.7652007087       -2.9410904536       -1.2246599247
  H        -1.4843034844       -1.6235552695       -0.4328705567
  O         3.4229464224       -2.7158020378        4.0969013600
  H         4.2894092170       -3.1950390071        3.9148187669
  H         3.0637476516       -2.2560486433        3.3135965829
  O         3.8799576860        2.8770536694        5.1398272711
  H         4.7207016925        2.5392199573        5.4094650608
  H         3.5620438314        3.3970375453        6.0095698835
  O         5.5242983518       -4.4704447391       -3.8147227179
  H         5.6645843630       -3.5695050367       -3.4823352325
  H         4.6152213491       -4.5187638423       -4.1140066078
  O         2.4078396442       -1.8927180119        1.4889210562
  H         1.5911883233       -2.3887127863        1.5627946114
  H         2.7973172902       -2.4329374427        0.7571514205
  O         3.3233486952       -5.3707169779       -4.9524919998
  H         3.3507642606       -6.3272189326       -4.9536728735
  H         3.2727619265       -5.1929325468       -5.8853981379
  O         4.8951574593        3.6289475704       -2.7521906820
  H         5.2284197223        2.7443215073       -2.5443106548
  H         5.4494117936        4.3887119528       -2.4244368577
  O         2.5064113451       -0.9273580940        5.9652996231
  H         2.7612420552       -1.8010584889        5.4715478731
  H         2.0225095544       -0.3917654125        5.2981396286
  O        -1.5952414187        2.7893499228        6.3964062580
  H        -1.3299427266        2.2528350587        5.6775518707
  H        -1.9261555227        2.2643047836        7.1122908448
  O        -1.7378958803       -3.8108793147        3.4875331241
  H        -1.2859373674       -3.8233067745        2.6213136457
  H        -1.1852511712       -4.3895679511        4.0427112276
  O        -2.8668044543        3.2526299205        2.3427922329
  H        -2.3287375741        2.7730283608        2.9985788423
  H        -3.5511735293        3.8043997254        2.7752657063
  O         2.2178473881       -1.4450059679       -3.5403687223
  H         2.5079617941       -1.2820419654       -4.4483420486
  H         2.7428080434       -0.8054355509       -3.0488621472
  O        -2.1570608994       -0.5049891200        0.6724260071
  H        -3.0539250820       -0.4157436119        0.3652239742
  H        -2.2511120728       -0.6733095518        1.6345872840
  O        -3.9393961920        4.1946386664       -3.2312714253
  H        -4.7942830932        4.7094051323       -3.1818565819
  H        -3.7019032294        4.0485008407       -2.2959618877
  O         5.2538367592        7.1729122061        1.6187163674
  H         4.4980494163        7.3818110615        1.0566953063
  H         4.9966234464        6.3312904786        2.0558273691
  O         5.5988134605       -1.6095315424       -3.4218798641
  H         5.3429669665       -1.3978392608       -4.3660141680
  H         6.4981713602       -1.2667440170       -3.3971052943
  O        -5.9683866880        5.6878643344       -2.5970228394
  H        -5.8342749234        6.0311103247       -1.6853666532
  H        -6.3562220926        6.4810823183       -3.0639616422
  O         7.7096437403        0.4382711920       -0.6028567137
  H         7.5838011677        1.1072719466        0.0496495182
  H         7.1025275953        0.6462405830       -1.4210012585
  O         2.4030953809        1.0188600697        1.6541056624
  H         1.8596747310        1.3672642122        0.9272495686
  H         2.5280184727        0.0538071036        1.3930854217
  O        -5.5077305691       -5.5727589529       -0.4199642055
  H        -4.7197554702       -5.0049166960       -0.3775033001
  H        -6.0918000945       -5.3616684585        0.3328479377
  O        -3.1455835816        3.2466323091       -0.3314622244
  H        -4.0757391751        3.2368034160       -0.0503297579
  H        -2.6544794926        3.1356249829        0.4601950644
  O         5.1981860169       -0.8611601442       -5.9987173451
  H         5.7759996430       -0.5268501670       -6.7195093322
  H         4.3063241293       -0.7732724850       -6.3834931208
  O         4.3195625783       -2.3455034113       -1.2163090839
  H         5.1312360151       -2.4670877977       -0.7214930142
  H         4.6021301549       -2.0725403382       -2.0681906394
  O         1.4273136135        2.0787690635       -0.9347457052
  H         1.8348049844        2.8348332157       -1.3893779669
  H         0.4472358771        2.1005146245       -1.1246460531
  O        -2.0903307265       -0.8922509769        3.3525279467
  H        -1.9915385997       -1.8443003381        3.5352145729
  H        -2.9129492366       -0.6295981917        3.8376568156
  O         2.4999844770       -7.7384142018        1.5547714063
  H         2.9207718178       -7.7010854103        0.6877502144
  H         3.2042230942       -7.5675547253        2.2351948727
  O         1.5083405459       -3.6193623785       -2.1989111350
  H         2.0378277969       -2.9355429885       -2.6311229267
  H         0.7518292477       -3.0990792390       -1.8358866710
  O        -6.0174529832        3.3164074221        0.0807968784
  H        -6.4991338816        2.7266417113        0.8081781084
  H        -6.3368018915        4.2045652397        0.3460220028
  O         2.7511446347       -5.5393283722       -7.7679824965
  H         1.8751386070       -5.8581575397       -7.7249930245
  H         2.6628660825       -4.6909271313       -8.2636601236
  O         0.9635831530        3.5891458643       -4.1830357682
  H         0.2443985498        3.3949481102       -4.7716894831
  H         0.6151202245        4.2118383939       -3.5361390826
  O        -3.7843469978       -5.0748017201        2.2115176796
  H        -3.1519285084       -4.6968726986        2.7488984858
  H        -3.2955869234       -5.5785999986        1.5198264325
  O         4.3952550793        5.2367161348        3.5365888269
  H         3.7775226444        5.9298552543        3.8865197237
  H         4.2432374014        4.3065469489        3.8662940482
  O        -4.7471231374        1.8131256687       -4.4150744534
  H        -3.9381938932        1.2335366931       -4.4186743309
  H        -4.5569488819        2.5921845232       -3.9187634789
  O         1.9940646419        1.0644323753        4.3225725327
  H         2.6847760351        1.7380714940        4.6467540961
  H         2.2205593769        1.0940487686        3.3672917790
  O        -7.5778462241        2.0734047341        2.0271565037
  H        -8.5140226285        1.8608557370        1.8550693493
  H        -7.1665534607        1.2356004012        2.3792449353
  O        -0.9600023456        1.5622847904        3.9299281242
  H        -0.0060872038        1.5472314319        3.9751333532
  H        -1.2433352749        0.6540460076        3.8948930358
  O        -2.1478429771        5.8925479912        0.0505547914
  H        -1.2382025681        5.7197763502        0.2661259623
  H        -2.4914600982        5.0056371652       -0.1589040974
  O        -0.5274173207       -1.2596821243       -3.7022964244
  H        -0.8216397306       -1.6489394244       -2.8106755972
  H         0.4360322642       -1.1257209788       -3.5483875599
  O        -6.4294975854        1.0832774998       -2.4659981911
  H        -6.1744988073        0.9432080087       -3.4060658956
  H        -7.0344056482        0.4311146845       -2.2617416940
  O         6.7155161458       -2.2867530994       -0.1090181800
  H         7.5253088376       -2.7065518491       -0.2707159847
  H         6.9621818761       -1.3699434051       -0.3294945688
  O        -1.3330056847        1.7895054297       -1.4194811041
  H        -1.9521976020        2.4822249809       -1.1409173915
  H        -1.5978368205        0.9906573716       -0.9104856509
  O         0.7318073017        5.9959813511       -2.1749499943
  H         1.0483703873        6.8804492376       -1.9858480008
  H        -0.0418348554        6.1639064508       -2.7930161273
  O         8.2924755952       -3.3769878830        4.8983893801
  H         8.9788624415       -3.6084606760        4.2568198930
  H         8.1584751681       -4.0800933451        5.5759457235
  O        -1.3373350033       -6.9504670918       -4.0303053252
  H        -1.3912691715       -6.5241049635       -4.9242059219
  H        -2.1880689635       -7.3445257928       -3.8082614329
  O        -4.2267390620       -1.2346890111       -3.0114406653
  H        -3.7473403784       -1.9953255233       -3.3176917520
  H        -3.5007266342       -0.5264632909       -2.9491564994
  O         2.7646580587        4.3558603941       -1.3703098809
  H         2.0350636824        4.7179089558       -1.8657716582
  H         3.5563828494        4.1323358845       -1.9195407815
  O        -2.8210397191       -4.0497479906       -3.8443633654
  H        -1.9053820646       -4.3649388360       -4.0131074784
  H        -3.3820185866       -4.5062233668       -4.4222122773
  O         0.4101009711        6.1662945840        0.5335918481
  H         1.0608642242        5.7061811423        1.1412804296
  H         0.7273700073        5.9339769118       -0.3713993308
  O         0.1745909185       -4.0648707456       -4.8417350084
  H         0.9055044803       -4.3388973693       -4.3069542614
  H         0.0522546420       -3.1130970329       -4.6022768498
  O        -6.4519231980       -0.6948569300        2.4426119529
  H        -5.9454144535       -1.3322995460        1.8339453931
  H        -7.2829372859       -1.1066090204        2.6103957671
  O         3.2718338772        4.2095097501       -5.1902044851
  H         3.9484261819        3.8945352453       -4.5716478889
  H         2.4054048070        3.8761724405       -4.8417522283
  O         3.1939422250        0.3561858337       -1.7520900763
  H         2.4137174573        0.9079902415       -1.4320539256
  H         3.4609778403       -0.1688730676       -0.9427549739
  O        -2.4806353205        5.3151456385        5.5166411203
  H        -2.6132414851        4.3730710285        5.7786901382
  H        -2.8948210305        5.3244139027        4.6025757457
  O         0.1261469028       -3.5350965297        1.3899393624
  H         0.3061060960       -4.3898578270        1.0008221405
  H        -0.2832957291       -3.0797817851        0.6179078377
  O         7.7081900550        7.3185884791        6.8346031929
  H         6.9666389631        7.5204862697        7.5243167889
  H         7.2075198639        6.5712300223        6.4355965355
  O        -0.0849775279       -5.2986257889        5.0521173870
  H        -0.7396361496       -5.9845666379        5.0725039031
  H        -0.0120523347       -4.8745427883        5.9637021505
  O        -3.1381335857       -4.3767548549       -1.1754341977
  H        -2.7555582167       -5.1922131195       -0.7727275255
  H        -3.0694735131       -4.4951218157       -2.1472467652
