6
Properties=species:S:1:pos:R:3 i=0 time=0.0 E=-34.4504806384 pbc="F F F"
O      -1.34714461       6.37448443      -0.62141850 
H      -0.86858888       6.26945136       0.20758178 
H      -1.15951202       5.57872562      -1.12905118 
O      -4.28960167       6.50648692      -0.05254257 
H      -4.66636612       7.32341124      -0.39137617 
H      -3.34672527       6.54544544      -0.27591519 
