       6
 i =      850, time =      170.000, E =       -34.4486929723
  O         2.8759653199        4.5908072725        3.2306425247
  H         2.3685998191        3.7538814811        3.2458095942
  H         2.9062803469        4.7942929859        2.2702824349
  O         5.5205078922        4.4319383600        4.9441033009
  H         5.9650664925        3.5513910499        4.8858862025
  H         4.6957234463        4.3634879338        4.4441602107