6
Properties=species:S:1:pos:R:3 i=0 time=0.0 E=-34.4504806384 pbc="F F F"
O       -1.60182102       0.84145564      -6.28976415
H       -0.81592709       1.37384541      -6.12783559
H       -1.63150589       0.20193738      -5.57124888
O       -4.03018776       2.59672571      -6.14429959
H       -4.52995759       2.55649337      -6.96450473
H       -3.27091643       2.00801249      -6.27602954
