       6
 i =      675, time =      135.000, E =       -34.4473910336
  O         2.8104866393        4.4563918256        3.1927498289
  H         1.8426535748        4.4055932617        3.3500427790
  H         2.8226327914        4.7377883600        2.2409582582
  O         5.7305588014        4.3833330300        4.9461059249
  H         5.5584004100        3.4227014874        4.8550118044
  H         4.9658252136        4.7436298222        4.5227066290