     192
 i =     1600, time =     2400.000, E =     -1100.0780335309
  O         5.2991244813       -5.2452350786        4.2847964166
  H         6.2554956804       -5.2893633026        4.2996983562
  H         5.1146300754       -5.3424614110        5.2918420269
  O        -4.5183744378        1.8370209676        5.3731512366
  H        -4.0263343390        1.4283044692        4.5922014860
  H        -3.8994068353        1.6546129111        6.2121378115
  O         4.0277529617        1.8921468655        4.1741606899
  H         3.6848470405        2.4655534698        4.8969862988
  H         4.6016050561        2.3665870380        3.5723807008
  O        -1.9241665362       -0.1152769924       -2.9561629712
  H        -1.3843289157       -0.0656409671       -2.1772131994
  H        -1.3446790593       -0.4892793305       -3.6275590104
  O        -3.7448266685        4.7913159142        6.0484723132
  H        -4.0787784942        3.9262775883        5.7992999280
  H        -3.9684471552        5.3784110823        5.3183020433
  O         9.0032205235        0.7361300710        2.7863667666
  H         8.4533613591       -0.0704148919        2.8620394641
  H         8.6980837014        1.1896137936        1.9822375319
  O         4.3730874707       -5.1965931089       -0.8028575361
  H         3.8233897857       -4.7850145559       -0.1227777884
  H         4.6600942213       -4.5371088701       -1.4947856988
  O        -1.1699078728       -3.5632226642       -1.2278513040
  H        -1.8936184227       -3.1879839504       -1.7579214382
  H        -0.6960274384       -2.7468427560       -0.9564083541
  O         4.4695142946       -2.5248327906        3.2396863432
  H         4.7607434034       -3.2581749908        3.7891002381
  H         4.0187782527       -2.9823612615        2.4670703979
  O         2.7198093359        3.7010759050        5.6850160710
  H         1.8413395184        3.5774183252        5.3121964160
  H         2.5537654509        4.1891619981        6.5328309246
  O         5.1175348010       -3.4679254667       -2.7798242124
  H         4.9962847678       -3.8610255204       -3.6525225727
  H         5.8887244535       -2.8446768440       -2.7887849237
  O         2.9357773474       -3.7348690004        0.8003946212
  H         1.9525254592       -4.0070471441        0.8498893212
  H         2.9183794508       -2.9180499002        0.2916543523
  O         2.2489012428       -4.6114743016       -4.9550803966
  H         1.9523793385       -5.5102071886       -4.7268711081
  H         1.7248662783       -4.4358502826       -5.7992869706
  O         4.6004075345        4.8148268479       -3.5237339047
  H         5.1562954694        4.0035024832       -3.2912022284
  H         5.1706216341        5.5773560262       -3.4526299756
  O         1.8419316113       -1.2977847582        3.6883362267
  H         2.7542126564       -1.5767766001        3.8026950798
  H         1.8486034532       -0.4346359835        3.2650734158
  O         0.0753239323        2.9950925646        4.9316651812
  H         0.2270899457        2.1220188989        5.3816531574
  H        -0.3275500217        2.6863908514        4.0999395523
  O        -0.5567832415       -2.9130245246        3.3431283994
  H        -0.3727116477       -3.6970172050        2.8038219511
  H         0.3322217657       -2.4771128362        3.5174844409
  O        -2.7704896262        3.9963421284        2.9899213219
  H        -2.0897045456        3.4121615342        2.5118763090
  H        -2.9739022683        3.5588068610        3.7987090078
  O         0.9804716853        0.5178751420       -6.6384197990
  H         1.7248336127        0.0013484939       -7.0338709672
  H         1.3680953494        0.9223286540       -5.7861979841
  O         0.3728658899       -1.2294642998       -0.3025138418
  H        -0.4942598141       -1.1547881794        0.1908019114
  H         0.9281402219       -0.6454191780        0.1463326831
  O        -3.9732457808        3.3016088971       -2.1781492112
  H        -4.0878103270        4.2572012354       -2.2568048031
  H        -3.3154323313        3.1357056984       -1.4890111135
  O         4.8139553155        3.2794211874        2.1278491587
  H         4.5772555661        3.3565012227        1.1826337436
  H         4.3030306175        3.9941217053        2.4751653802
  O         4.8279189063        0.6194875455       -3.7053123483
  H         5.1640069666        0.7639996203       -4.6211085541
  H         5.4773953415        0.0485672112       -3.1777113365
  O        -4.0054590951        6.0303532576       -2.4696768841
  H        -4.5585437273        6.2722761207       -1.7264540729
  H        -4.4869265229        6.2433078677       -3.3020934101
  O         5.8508340614        0.2091621928        0.6064989678
  H         6.0418649611       -0.5241770010        1.2290871311
  H         5.2731924920        0.8485953605        1.0186607111
  O         2.6780487675        0.7644256995        0.0229652246
  H         3.1844206191        1.5287089149       -0.2641894917
  H         2.8647792250        0.0548181971       -0.5698571952
  O        -5.5711569534       -5.6720046368       -0.1335606640
  H        -5.4619105346       -6.2709124495        0.6353774033
  H        -6.5423612664       -5.4736011131       -0.2241100379
  O        -5.3509596446        5.1110806558        2.3498483835
  H        -6.1921583192        4.5804116007        2.1774370244
  H        -4.5294235005        4.5540769171        2.2904033709
  O         5.5857963566        0.5377996661       -6.5174862827
  H         6.4568619310        1.0198762538       -6.5890111781
  H         5.0441901544        0.9584781289       -7.2093715157
  O         2.9796812739       -1.7841437137       -1.1829060441
  H         3.7328296031       -2.1197967568       -1.6769659113
  H         2.1870033332       -2.0477172253       -1.8047261305
  O         3.7107128757        3.0330000878       -0.5179970984
  H         4.5048455889        2.9374621844       -1.1269778882
  H         3.2669925149        3.8138043079       -0.8869743051
  O        -1.6735401038       -1.1435942533        1.4737976365
  H        -1.4183503573       -1.7990879769        2.1150799442
  H        -2.2607239914       -0.5813177722        1.9767121382
  O         1.2208818770       -7.2152590524        1.8171788026
  H         1.6292798612       -7.3537489237        0.8715026326
  H         2.0308988393       -6.9889509154        2.2835728764
  O         1.2119799546       -2.8380262355       -3.0247024802
  H         0.3992630243       -3.2873636231       -2.7394895244
  H         1.6738340805       -3.4861215242       -3.6930710986
  O        -4.3915289162        1.8747504900        0.4178934462
  H        -4.0212990097        1.6636484850       -0.4378239561
  H        -5.3178333843        1.5175955891        0.4449844994
  O         4.7683387643       -4.5642415918       -5.6318619335
  H         3.8634432807       -4.4520813898       -5.2261358833
  H         5.0909867467       -3.6807118719       -5.9742895730
  O        -0.0186000094        3.2444803681       -3.1349577554
  H        -0.5022132112        3.5767607628       -3.8959907703
  H        -0.0923108944        3.8994656425       -2.4169499196
  O        -4.3115572111       -5.8637005742        4.1967717485
  H        -3.8851947670       -4.9982784949        3.9878163421
  H        -4.5813374466       -6.2420088806        3.3322369625
  O         3.6235678417        5.2743348997        3.5197400547
  H         4.2262308842        6.1395788658        3.6002675920
  H         3.5350616895        4.9276117938        4.4119768481
  O        -3.2770369206        1.4863116221       -4.5977109651
  H        -2.7218754394        1.0072995923       -3.9987795385
  H        -3.4396693036        2.2864583003       -4.0984987873
  O         1.7501123367        1.4974912545        2.4091119151
  H         2.2781043176        1.2600314583        1.6009886899
  H         2.3676561601        1.9218649910        3.1059846395
  O        -5.0331601767       -1.4037189641        3.0195452941
  H        -5.8773296778       -1.5287813712        3.4163991707
  H        -4.8094602913       -2.3302409643        2.9310169762
  O        -0.7160502159        2.3756917272        2.3054856399
  H         0.2393180584        2.1490443267        2.2682026256
  H        -1.1462916756        1.5302326958        2.1396806564
  O        -2.4749272148        5.6996695324        0.3718021027
  H        -2.4562513803        5.2548969826        1.2509960894
  H        -3.0104978456        6.5143783187        0.6433076077
  O        -0.2151195724       -1.2074116313       -4.9255776569
  H         0.4637817237       -1.4942620520       -4.2385028275
  H         0.0391646049       -0.5534476569       -5.6021423287
  O        -6.6534478266        2.8961496700       -2.4616115533
  H        -5.6927435378        2.9962794511       -2.3367002111
  H        -6.8510760589        1.9954142327       -2.7453908718
  O         6.4175496205       -0.8309018140       -2.1657866294
  H         7.2724318115       -1.1701614461       -2.4150788458
  H         6.6045783018       -0.5184844391       -1.2500864340
  O        -1.8066235184        1.9912121905       -0.9979774582
  H        -1.2125405905        2.2571324770       -1.7309192023
  H        -1.3699228332        2.3189519479       -0.2027278949
  O        -0.2455644842        5.5641939176       -1.5143257751
  H        -0.4485310393        5.9290619262       -2.4227745268
  H        -1.0473986126        5.8678217201       -1.0524011954
  O         5.8410804331       -2.3777094127        5.8854435838
  H         6.7357564489       -2.6057371339        6.2959823860
  H         5.6665631095       -1.4129662869        6.0966155690
  O        -1.3047777433       -5.7841472842       -3.7358023060
  H        -1.1713624187       -6.4442536258       -4.4329976917
  H        -2.1892438859       -5.9477135417       -3.3608251093
  O        -3.4315681426       -2.3245523980       -2.6328384213
  H        -3.8278386504       -2.7532769193       -3.4221146635
  H        -2.9876289937       -1.5360334316       -2.9942054961
  O         2.4143151929        5.2334021664       -0.8792998457
  H         1.5685606143        5.6120298093       -1.2337841913
  H         3.1141834059        5.9050158858       -1.0942052496
  O        -4.5278138482       -3.3232364877       -4.9614187246
  H        -3.5448983531       -3.2249153935       -5.2389079207
  H        -4.7871721714       -4.2571262621       -5.1926790681
  O        -0.7339007405        6.1977383398        3.9165159887
  H        -1.4093957011        5.5319630619        3.7985120053
  H        -0.0563926565        6.0428067398        3.2590730184
  O        -1.8807885576       -3.2304684007       -5.5168981215
  H        -1.6138630187       -4.0146200689       -4.9609086274
  H        -1.3290571053       -2.4549424660       -5.2000293508
  O        -3.2736181336       -3.5477113701        3.4417553968
  H        -2.4573850723       -3.2258302502        3.8259756196
  H        -3.0630413077       -3.8079414500        2.5389867683
  O         2.0175973873        5.0165370826       -4.3350769937
  H         2.8588586708        4.8924609318       -3.8891424985
  H         1.3254469041        4.6543566342       -3.7615174691
  O         1.9252548192        1.0779605003       -4.1736759673
  H         1.4145799075        1.6441355737       -3.5769576107
  H         2.8847754243        0.9841590222       -3.9310711791
  O        -1.2878106123        4.5703986121        7.0622127946
  H        -0.6978957741        4.1878940075        6.4132908067
  H        -2.2104212458        4.5627159372        6.6925938293
  O         0.2610022520       -4.4951085871        1.1054244931
  H         0.3656875392       -5.5097115058        1.1798964904
  H        -0.3151949349       -4.3823013525        0.3248170777
  O         7.1158640669        6.5103404978        7.7288446134
  H         6.1749426718        6.6514242345        7.4911644941
  H         7.3982777499        5.7167818848        7.2007057292
  O         0.5144238018       -4.5494462114        5.5949719825
  H         0.1462285147       -5.2889216219        5.1237001950
  H        -0.2398044512       -3.9540237966        5.5839311194
  O        -3.4722900453       -4.1634508539        0.6980004503
  H        -4.3425759677       -4.4949048088        0.2945119456
  H        -2.9256856806       -3.7266506554        0.0675521097
