6
Properties=species:S:1:pos:R:3 i=0 time=0.0 E=-34.4504806384 pbc="F F F"
O        1.09458431      -5.01302313       4.06281867
H        1.21590541      -4.20658762       4.57490457
H        0.58543047      -4.75193039       3.28904743
O        3.77350844      -6.03293946       3.17837863
H        3.91676727      -6.93087462       3.49033113
H        2.89523432      -5.78359094       3.50531729
