     192
 i =     6100, time =     9150.000, E =     -1100.0626196728
  O         5.7720261643       -3.7783428222        2.6299210983
  H         6.0191621498       -4.6960192541        2.6155837737
  H         6.3863929461       -3.3978689152        3.3097368249
  O        -6.1814732165        2.0747430430        5.7831128408
  H        -5.8044585078        1.2999801279        5.2428110418
  H        -5.5505411825        2.0928830145        6.5451160921
  O         6.6119120412        4.7005656649        5.5446056709
  H         5.7718595552        4.9893236634        5.0872681633
  H         6.5350215180        3.6674840658        5.5331880449
  O        -2.3004148186        0.8983552939       -4.0828842337
  H        -1.9229094076        1.1589097726       -3.2321557709
  H        -1.9238278144        0.0265121936       -4.2711770205
  O        -3.6327334461        5.5271201144        4.1111338990
  H        -4.5509537665        5.2561293069        4.3022838446
  H        -3.7219677803        6.2218748436        3.4557314696
  O         6.8841813963       -0.2546223550        4.5417403319
  H         7.0319392488       -1.1463145816        4.8356437386
  H         6.7478531991       -0.4905965910        3.6430748166
  O         3.9530286482       -5.1964278292        0.3416600206
  H         3.7548797811       -4.4002999090       -0.1806318843
  H         3.6843499202       -5.9472995516       -0.1837014441
  O        -0.6863484217       -2.6208125338       -1.6022778120
  H        -1.5213447198       -3.1264166227       -1.4092471261
  H        -0.7574586807       -1.9654837285       -0.9482593245
  O         3.2898610894       -2.8532130310        3.4692775606
  H         4.1792720690       -3.2325035567        3.3410894821
  H         3.0050292021       -2.2420577317        2.7552377061
  O         3.3185118358        3.3216489062        5.9353723977
  H         3.8542631960        2.6473446117        6.3941254304
  H         3.2133756122        3.9620751941        6.6273048588
  O         5.1908891081       -3.8948064630       -5.2305502013
  H         5.2181374936       -3.0828288586       -4.6621080278
  H         4.3309069787       -4.2219219377       -5.2763216038
  O         1.8705243998       -1.9190965098        1.2636650037
  H         1.2259118246       -2.5882726589        0.9424294260
  H         2.6381008995       -2.1334272154        0.6738396784
  O         2.6492119163       -4.7036718445       -5.2228402928
  H         2.7200497145       -5.6102315477       -4.8799258485
  H         2.3185537845       -4.7095682941       -6.1883196541
  O         4.8778445458        4.0545069324       -2.4431317108
  H         5.3276561999        3.1628673435       -2.2618596924
  H         5.7016071222        4.5383437080       -2.6403070077
  O         3.4317220041       -0.7689862123        5.3722508647
  H         3.2534491683       -1.5071793413        4.7676918716
  H         3.1652596757        0.0167918332        4.8778147605
  O        -0.6903642605        2.5851609578        6.6912178889
  H        -0.6009039435        2.2402449698        5.7960946866
  H        -1.1182267495        1.8919738502        7.2443929713
  O        -1.2563434049       -3.0194451271        3.3379897411
  H        -0.7872403596       -3.3964524114        2.5608939944
  H        -0.9775639701       -3.5899133179        4.0873388438
  O        -2.1603119370        3.5023887993        2.8487097073
  H        -1.5166804124        3.0094454276        3.4136538391
  H        -2.6510892328        4.1330759895        3.3576578963
  O         1.1800654468       -1.4260055432       -4.9550139726
  H         1.8486098616       -1.2725469553       -5.5937813282
  H         1.5421931800       -1.3579639091       -4.0898761708
  O        -1.4425369850       -0.7665964622        0.4400635140
  H        -2.3737438050       -0.6872959029        0.2117185020
  H        -1.4425706248       -0.6740549201        1.3747932606
  O        -3.1187800626        3.6334931825       -2.4918592600
  H        -3.8825323069        4.1819382066       -2.3759171296
  H        -3.0257481240        3.2405627358       -1.6277515088
  O         5.7729778846        6.0089198632        2.0922943621
  H         5.0846683392        6.3779112053        1.5129520529
  H         5.2584997343        5.7715948950        2.8841046727
  O         5.0637800336       -1.3379422597       -3.4641414973
  H         4.6662329983       -0.6364715906       -4.0218927774
  H         6.0169802223       -1.1338150842       -3.4831242234
  O        -5.2653539518        5.4071129758       -2.2127707394
  H        -5.3192531145        6.0680781945       -1.4579569008
  H        -5.1675413617        5.8360564727       -3.0986620845
  O         8.7138389185        0.5987454934       -0.2107118455
  H         8.7423896936        1.6100374092       -0.1211470531
  H         8.1671012964        0.5076591278       -1.0249218281
  O         1.3212943223        0.9252566662        1.4615634781
  H         0.7238630102        1.2494380234        0.7753955506
  H         1.4382142193       -0.0154203743        1.2619744657
  O        -5.4267430717       -5.1732521534       -0.1669240623
  H        -5.0131280704       -4.9839628949        0.6892414688
  H        -6.3525345494       -5.2526281191        0.1203077587
  O        -3.3013158093        3.2756572563        0.4099290872
  H        -4.1861653469        3.5070148130        0.7339797194
  H        -2.8536802489        3.0520767738        1.2017730102
  O         4.3862617215        0.7770170534       -5.1894441910
  H         5.0317402341        1.2797069970       -5.6945626734
  H         4.0572356275        0.0974515537       -5.8075411670
  O         3.7973266475       -2.7492811077       -0.7935789808
  H         4.6951856948       -2.3919436756       -0.7606706918
  H         3.5510699620       -2.8247415329       -1.7052401910
  O         1.4816133384        2.6001054448       -1.8334393137
  H         1.9104715445        3.2579477581       -1.2526735356
  H         1.2025864920        3.2422939215       -2.5354890729
  O        -2.2643658968       -0.4765571382        3.2984451923
  H        -2.0996300809       -1.3891877806        3.5935139667
  H        -3.2310181280       -0.4129356457        3.2472068350
  O         2.9498923826       -8.7275878949        2.0655245659
  H         3.3856602355       -8.4571606098        1.2163846597
  H         3.1556534858       -8.0258115173        2.7029912435
  O         1.8284362250       -3.8704110600       -2.5547289505
  H         2.0417709389       -3.8687702133       -3.4943223600
  H         1.0853281356       -3.2735058250       -2.4375813900
  O        -5.8115836927        3.4816456747        1.2693634687
  H        -6.4244813996        3.0001255530        0.6986855181
  H        -6.2389201196        4.2521982552        1.5918283379
  O         2.1486671670       -4.9559421513       -7.7921797610
  H         1.2448409268       -5.2024121278       -7.9629837249
  H         2.3542275072       -4.1875873105       -8.4412162757
  O         0.6574634548        3.9686025943       -3.8787677904
  H         0.4097254702        3.4406413138       -4.6871525107
  H        -0.0937069338        4.5858273998       -3.6906436952
  O        -3.6091687601       -4.9239111049        2.2644746447
  H        -3.1254903282       -4.2933138296        2.7782043335
  H        -3.0510859505       -5.4030988383        1.5885778363
  O         4.1457992820        5.4631509755        4.4241926980
  H         3.5644011281        6.1572466197        4.7478527694
  H         3.8876580435        4.6655648639        4.9346105081
  O        -4.6238354457        2.2625551151       -4.3613906029
  H        -3.8878411662        1.6924291175       -4.1686018772
  H        -4.3064691438        3.1190634488       -4.0825241620
  O         2.0984910971        1.6769202834        3.9847187445
  H         2.4240750732        2.2642708451        4.6684341890
  H         2.3975745605        2.0233349065        3.1529952098
  O        -7.7666130929        1.1687191151        0.4628068032
  H        -8.6801478267        1.0380778479        0.7476805232
  H        -7.2617204250        0.7455809498        1.1983683982
  O        -0.5535593119        1.5003892709        4.2299151932
  H         0.3083526817        1.5365116590        3.8495048463
  H        -1.0765184191        0.7491543149        3.8995503028
  O        -2.0207507297        5.9208973902        0.6808979785
  H        -1.1663340526        5.8310760053        1.1803519021
  H        -2.2264471933        4.9973613739        0.4742239718
  O        -1.3556948784       -1.8509165865       -4.2560194972
  H        -1.1297235745       -1.8577594118       -3.3211255008
  H        -0.5642422711       -1.6528071605       -4.7801170973
  O        -6.0580732233        1.7398434927       -2.0545839856
  H        -5.6087592484        1.8328400103       -2.8923832117
  H        -6.5042709012        0.8904475901       -2.1545479417
  O         7.4142434402       -2.4191557092       -0.6248713581
  H         7.5052737402       -3.4071858136       -0.6769082323
  H         7.7407627929       -2.0726529331       -1.4646296483
  O        -1.1360510703        1.2566897493       -1.7053401273
  H        -0.2118138112        1.5639414505       -1.7479469502
  H        -1.1788605587        0.7075613468       -0.9218741156
  O         0.9263531766        6.2529430855       -1.4660866891
  H         1.1320396960        7.1886358798       -1.6034625337
  H         0.0975846402        6.1909422537       -2.0287812394
  O         7.0695247575       -2.7721377290        5.4588124863
  H         7.8088555319       -3.2790210440        5.7433213158
  H         6.3938185885       -3.0644471708        6.1078055967
  O        -1.2899000470       -6.7618612240       -3.2839881514
  H        -1.4472049150       -6.4380727445       -4.1938302747
  H        -1.9173041927       -7.5294913986       -3.0748234524
  O        -4.1998664416       -1.4911125906       -3.2019304254
  H        -3.7958750134       -2.2917442638       -3.6450107576
  H        -3.6646121530       -0.7300459164       -3.4432214542
  O         2.9481848797        4.6407895678       -0.7247903302
  H         2.2160707251        5.2112171492       -1.1257136058
  H         3.7069833176        4.6184407927       -1.3320037391
  O        -3.4631812805       -4.3785587463       -5.6169490369
  H        -2.5827637625       -4.6923684505       -5.4375711196
  H        -4.0406749738       -5.0332643315       -5.2661641552
  O         0.5493200801        5.3952056185        1.3297558165
  H         1.1581938564        4.7028468943        1.6568057860
  H         0.8564803502        5.5776405275        0.4424531145
  O        -0.5858757043       -4.2741767402       -5.4387930147
  H         0.3673981130       -4.3865864671       -5.2269333744
  H        -0.8456934075       -3.4617997263       -5.0309723699
  O        -5.8592280990       -0.7343502628        1.6192930950
  H        -5.1667135918       -0.1931327674        1.2178594103
  H        -5.8916403602       -1.4096949549        0.8781720562
  O         3.1629582800        5.2194803637       -4.4928749229
  H         3.8003130513        4.9678448485       -3.7379270423
  H         2.3532382952        4.7481161212       -4.1518920087
  O         2.4555151707        0.0631996564       -2.3957467926
  H         2.2281387944        1.0444045989       -2.3374723111
  H         3.3024005016        0.1708528415       -2.8770970594
  O        -2.5180500715        4.9513494893        6.7737786987
  H        -1.9308228586        4.1714446234        6.7010983030
  H        -2.7238150088        5.2327177696        5.8731415565
  O         0.1176046935       -4.0843461674        1.1767700932
  H         0.4904529034       -4.6795918925        1.7736400486
  H        -0.1378100555       -4.6001502537        0.4251632516
  O         7.1692276282        6.3182462737        7.5933079080
  H         6.4300989799        6.9107148438        7.4134602194
  H         7.0369429465        5.6965581728        6.8941562008
  O        -0.6396668387       -5.7764979237        4.5748615084
  H        -1.3973794927       -6.3262082094        4.3028758201
  H        -0.8380791290       -5.3649742742        5.4436850957
  O        -2.4914804024       -4.7403665448       -1.3584208712
  H        -2.4517114171       -5.5186697879       -0.7614569825
  H        -2.1386697577       -5.0890377800       -2.1836432123
