       6
 i =      200, time =       40.000, E =       -34.4473478184
  O         2.4034207588        4.2262000246        4.2053744958
  H         2.7254418073        4.8555669274        3.5085567809
  H         2.0581951234        3.4372066962        3.7325892481
  O         5.4620548455        4.2466492341        3.8058280617
  H         6.1983294964        4.0098489513        4.4031254345
  H         4.6271543363        4.1120984087        4.3436471838
