       6
 i =      750, time =      150.000, E =       -34.4462439464
  O         2.8313319884        4.5172282445        3.2169132918
  H         2.0023789230        4.0644045024        3.2434250929
  H         2.8869168944        4.7458518981        2.2573883175
  O         5.6464702302        4.4094953681        4.9481887314
  H         5.7522519940        3.4248749473        4.8305046298
  H         4.9197278307        4.6654708436        4.3164957484