     192
 i =     5200, time =     7800.000, E =     -1100.0779703386
  O         5.8327795151       -3.5826993508        3.5186892446
  H         5.7248591774       -4.5528203881        3.4008398283
  H         6.3942190114       -3.4343558251        4.3230174349
  O        -4.8576687328        2.2762507586        5.1250255399
  H        -4.5888748941        1.4009294714        4.7110965916
  H        -4.3405035987        2.3164876606        5.9314831054
  O         6.2968038317        5.0644898175        5.6812812692
  H         5.4599009987        4.6861413475        5.9264335219
  H         6.7018456831        4.3520631044        5.1564456557
  O        -2.6066133535       -0.1538255296       -3.5753031083
  H        -2.1541448205        0.5354911516       -2.9545997682
  H        -1.9443219681       -0.7792736515       -3.9485266373
  O        -4.0538815529        5.5384267543        3.6052258418
  H        -4.7009442196        6.1752691671        3.3442338127
  H        -3.2965666069        5.6839533321        2.9817786853
  O         7.9399340065       -0.3570253544        4.1922269666
  H         7.4351918359       -1.0044935945        4.7365742961
  H         7.3861938988       -0.3256655355        3.3629935824
  O         4.8768833422       -5.6842720964        0.6057792942
  H         4.6690531529       -4.7775656587        0.1914681338
  H         4.1645433982       -6.1833196941        0.1515559623
  O        -0.9198479682       -2.2026591133       -1.3056026454
  H        -1.6818292525       -2.7192860455       -1.5653665729
  H        -1.1834078630       -1.3773640534       -0.7918300714
  O         3.5205159143       -2.4586281027        4.0426190526
  H         4.4069852537       -2.7879762474        3.9742064503
  H         3.1084998232       -2.6246997348        3.1636601653
  O         3.5371152498        3.6158165133        6.2046594235
  H         3.9599116473        2.7654711157        6.3650202512
  H         3.1995681946        4.0372805456        7.0542916235
  O         4.8107605081       -3.3986675571       -5.2326484811
  H         4.5000660305       -2.5840063162       -4.7830524536
  H         4.0781524501       -3.7007830008       -5.7496695540
  O         2.6896074094       -2.5341767940        1.4190677247
  H         2.0611871891       -3.1629129330        1.0685785874
  H         3.5312000281       -2.6901157159        1.0166030424
  O         1.9482901179       -5.1374822847       -4.8007526285
  H         2.3029187172       -5.9480610238       -4.4233964217
  H         2.1490374435       -5.1547425277       -5.7312665590
  O         4.8403864634        3.7498377162       -1.7879860747
  H         5.2278559880        2.9976875125       -2.2258232811
  H         5.5381177014        4.4404862790       -1.8453244206
  O         3.2580968351       -0.0280796353        5.0519614585
  H         3.4881947964       -0.8341985442        4.5004882305
  H         2.4431486254        0.4094920805        4.7505811775
  O        -1.4073266048        2.4687407536        6.6922447983
  H        -1.1309019365        1.8904254583        5.9295798092
  H        -2.1877864078        2.1512551183        7.1285480950
  O        -1.2596491488       -3.6023970244        2.4162831167
  H        -0.5557971990       -3.6786173393        1.7699246864
  H        -1.1773211735       -4.1994675129        3.2254202760
  O        -2.5489322014        2.5297517227        3.1969038287
  H        -1.8980911191        2.1274864842        3.7979867865
  H        -2.9718384566        3.1341530693        3.8272689052
  O         1.4304908077        0.2062379198       -4.6597201427
  H         1.9457773095        0.1624983344       -5.4476894220
  H         2.0624651188       -0.0887456712       -3.9891531067
  O        -1.1789123350       -0.0231151173        0.3754591949
  H        -1.7164777401       -0.2517531844        1.1522906882
  H        -0.2955221949       -0.0153884486        0.7348792496
  O        -3.2228720404        4.1880120633       -2.5058450099
  H        -4.1136928389        4.4498065797       -2.2382305408
  H        -2.9217840207        3.5883065204       -1.8291014899
  O         5.6860226807        6.3215604691        2.9474713584
  H         5.3751238439        6.4978942610        2.0433243349
  H         5.0152115575        5.7548692524        3.4189330640
  O         4.9869596767       -1.0510626508       -4.2029437972
  H         4.9846852550       -0.3035410900       -4.7777027322
  H         5.9173076352       -1.1643127217       -4.0179571316
  O        -5.6248446541        5.5338314193       -2.0517495511
  H        -5.4563248549        6.2999414309       -1.4212489112
  H        -5.6388122425        5.9257447257       -2.9217818767
  O         8.0936075573        0.7370357070       -0.9023461774
  H         8.3366344112        1.5895085578       -0.5318326177
  H         7.2919109880        0.9100692686       -1.3769434906
  O         1.6174648472       -0.1671174387        0.9045488051
  H         2.1663866010        0.4098886524        0.4360372443
  H         2.1539120115       -0.9968910446        1.0989073728
  O        -5.1567498228       -4.9882086160       -0.3217730963
  H        -4.3559387754       -5.2048411544        0.2252374217
  H        -5.9684518603       -5.4159387556        0.1183913336
  O        -3.3725223287        3.7547933355        0.5931954788
  H        -4.3501164370        3.8428631816        0.7823642519
  H        -3.0622642168        3.2348514165        1.3604269223
  O         5.0746117192        1.2361502720       -5.8166446995
  H         5.8640821270        1.6145562801       -6.1982374809
  H         4.5182304557        0.9100424558       -6.6343032670
  O         4.6230331476       -3.3659279773       -0.4838948902
  H         5.3355844042       -2.7591720296       -0.7749124880
  H         3.9362779109       -3.3286997993       -1.2145781165
  O         2.1984938440        1.8991157266       -1.9046810414
  H         2.2489380479        2.3256866063       -1.0469571471
  H         1.4307164019        2.2636205542       -2.4121597555
  O        -1.8629706452       -0.7772082477        2.9786011842
  H        -1.6007957889       -1.7035352464        2.9201017768
  H        -2.7968838754       -0.7889563093        3.2223507502
  O         2.0442128459       -8.6773520387        2.5443206171
  H         2.3902696542       -8.4230149762        1.6687902441
  H         2.6271563140       -8.2026298039        3.1345905141
  O         2.8712002310       -3.5278766195       -2.6442879690
  H         2.4161646750       -3.9527694850       -3.4757760705
  H         2.5265401586       -2.6242479311       -2.6144086873
  O        -6.2144538662        3.9490618153        0.7782953595
  H        -6.9813903161        3.4102538568        0.6211822699
  H        -6.3338890214        4.4130184930        1.6387301942
  O         2.2999590936       -5.0149088252       -7.4520213783
  H         1.4660135842       -5.1285075955       -7.9243487817
  H         2.6121060175       -4.1006038546       -7.6981240412
  O         0.6234764468        3.1402768005       -3.7503142164
  H         0.4069808601        2.6468852941       -4.5545322315
  H        -0.1254140644        3.7420339723       -3.6502916503
  O        -3.1705872744       -5.3033737253        1.1437611859
  H        -2.7400767727       -4.5506328175        1.6065544144
  H        -2.4881913598       -5.8769559565        0.7054704318
  O         3.5008171426        5.2953869487        4.0558548423
  H         3.1925561082        6.1612527910        4.4238585703
  H         3.5249299716        4.6751007085        4.8317922223
  O        -4.0574426480        2.1369234129       -4.5427365525
  H        -3.7142064311        1.1902443233       -4.2983300600
  H        -3.6040354061        2.7970341522       -3.9546520887
  O         1.6241148119        1.2196594325        3.2395421070
  H         1.8302417384        2.1625228774        2.9165736166
  H         1.6818358547        0.6966693366        2.4197095394
  O        -8.3174699569        1.6616016049        1.2439588207
  H        -8.6516376834        1.6840838659        2.1664171656
  H        -7.8025149152        0.8928738018        1.1298693457
  O        -0.5392936005        1.0185955394        4.7306089269
  H         0.3149386993        1.2194377782        4.1753995119
  H        -0.9148679268        0.3787601830        4.0864553790
  O        -1.1724190934        5.5667323523        0.3239710110
  H        -0.7299508460        5.1522163153        1.1259759634
  H        -1.7737906599        4.8746968727       -0.0746676233
  O        -0.4569305753       -1.8631146495       -4.0577758631
  H        -0.4541235105       -1.9325889380       -3.0493857974
  H         0.2881010974       -1.2388797677       -4.3829105875
  O        -6.4306384663        1.5288484034       -2.9221753865
  H        -5.5869658500        1.8239165054       -3.3652770386
  H        -6.9843755446        1.3229525630       -3.6554496647
  O         6.8790003224       -2.1980770219       -0.3720114507
  H         7.0513658597       -3.1531750422       -0.2685651867
  H         7.2198015512       -1.9780606114       -1.2001888080
  O        -1.4633317716        1.6507671542       -1.8417754180
  H        -0.5591583057        2.0312046185       -2.0098549707
  H        -1.4864256203        1.2068898113       -0.9896905085
  O         0.8139036980        5.7794496618       -1.4370267621
  H         0.8531522213        6.2878015709       -2.2472199524
  H        -0.0733495345        5.8344319655       -1.0442247073
  O         6.9606573271       -2.3839650176        5.7821708796
  H         7.7202178238       -2.9342267823        6.0946652204
  H         6.1953693689       -2.6225497153        6.3228824947
  O        -1.2249922660       -7.2022223945       -3.9682298182
  H        -1.3861531828       -7.0221655030       -4.9030160801
  H        -2.1387087401       -7.4037385894       -3.6928818882
  O        -4.9292187755       -1.5547839931       -3.0775378791
  H        -4.5778141321       -2.2951359101       -3.6523129367
  H        -4.1970886202       -0.8803649934       -3.0418549833
  O         2.8484278797        4.7317252166       -0.0307005324
  H         2.0802944509        4.9369320032       -0.5707712983
  H         3.5453374651        4.3475530193       -0.5909283549
  O        -3.7722797775       -3.5544203248       -5.0684563916
  H        -2.7944435591       -3.8418766909       -5.1177130421
  H        -4.2695722394       -4.4579432050       -5.0337627668
  O        -0.5592612494        4.4747183210        2.6731675725
  H        -1.1858937704        3.6903113612        2.6582528863
  H         0.4071446147        4.2120617210        2.6831546171
  O        -1.1850006195       -4.1044856111       -5.2477278608
  H        -0.8008084003       -4.8738304723       -4.8066967921
  H        -0.7927199044       -3.3180727178       -4.7922981137
  O        -6.1517850325       -1.1514906881        2.2020929336
  H        -5.6974890396       -1.2830121656        1.3249851387
  H        -6.3050085744       -2.0645411989        2.4801354098
  O         2.8505909154        4.6840544614       -3.8678789228
  H         3.4746810403        4.5138647900       -3.1347191340
  H         2.1230173720        4.0700206907       -3.6870659369
  O         2.8755779968       -0.6726130754       -2.3379257177
  H         2.7966840629        0.2136195174       -1.9927898088
  H         3.7388921482       -0.8013756232       -2.7883805239
  O        -2.2569347344        5.4804121295        5.8358711690
  H        -2.1410139998        4.5343658020        6.0170061905
  H        -3.1148799646        5.4716965869        5.3082339226
  O         0.6697196263       -3.8231518469        0.2534022143
  H         1.1084133259       -4.6707549735       -0.0124629417
  H         0.3162998211       -3.3351606230       -0.5222423574
  O         6.8419319035        6.6999510698        8.0248330754
  H         6.3093995359        7.4656102799        7.6627505222
  H         6.8472534721        6.0841506252        7.2602520065
  O        -0.6115959538       -4.9432329214        4.6155339352
  H        -0.9457755814       -5.8117443174        4.8362554038
  H        -0.9121597398       -4.3588274554        5.3255000825
  O        -3.1072794964       -3.8796042236       -2.1120209604
  H        -3.7899478725       -4.3046016039       -1.6070496671
  H        -3.4011069814       -3.7714575265       -3.0053681543
