     192
 i =      900, time =     1350.000, E =     -1100.0650630246
  O         5.2567090718       -5.0683055527        3.9057180233
  H         6.2540534320       -5.1184340274        3.8329954628
  H         4.9838595226       -4.8607196861        4.7921215522
  O        -3.3907619604        2.7583812369        4.8379668513
  H        -3.8125168006        2.2188231834        4.0928686333
  H        -3.7400163551        2.3972346572        5.6977061872
  O         5.3947761954        2.7075156736        4.5399706064
  H         4.6958279218        3.3369050890        4.7863463079
  H         5.6027706310        2.8715786472        3.6070098315
  O        -2.7376891109       -0.3990100632       -3.5803496575
  H        -2.5118713318       -0.1795924683       -2.6707089861
  H        -2.1901239980       -1.1094619123       -3.9150917115
  O        -3.6683821757        5.4547879570        5.7477314179
  H        -3.7442824169        4.5717241485        5.3379533256
  H        -3.8361115261        6.0234206572        4.9575439528
  O         7.6079782629        1.1017234591        3.0168177401
  H         7.8685855024        0.1645053401        2.8259659783
  H         7.6082285760        1.5223139275        2.1416807730
  O         4.2996645536       -4.8795499753        0.1389849134
  H         3.9770850305       -4.1998424113        0.7870640751
  H         4.2401214014       -4.2993797668       -0.7105527732
  O        -2.4311441416       -3.3950495527       -1.7184110400
  H        -3.1583502385       -3.0309831142       -2.3597313416
  H        -2.0518895884       -2.6582083709       -1.2072725020
  O         5.5781345242       -2.3727196017        2.9765175731
  H         5.3955697720       -3.2778681911        3.2140038677
  H         5.0645634047       -2.2951950412        2.1492765989
  O         2.9098330041        3.6907343425        5.1220585704
  H         2.3580184922        2.8904310779        5.0854202275
  H         2.7183415606        3.9752101732        6.0524377617
  O         3.8898199215       -3.9384818574       -2.5044805105
  H         4.0885642498       -4.5670856784       -3.1856062932
  H         4.5903823484       -3.2480623580       -2.5781026910
  O         3.1752670190       -2.6644803034        1.2075544929
  H         2.5551159179       -2.3427568815        1.8988202549
  H         2.6234510144       -2.6365923971        0.4358127362
  O         1.6105591645       -5.0001254739       -5.1650762978
  H         1.7295306776       -5.9552392229       -5.0211084291
  H         1.1088564206       -4.8627074790       -6.0220888776
  O         4.1542777698        5.4744745866       -3.3189304951
  H         4.7032468936        4.7549563796       -3.1257807882
  H         3.6769957509        5.6556395459       -2.4769875805
  O         3.0885059759       -0.3599680246        5.7249485543
  H         4.0500513623       -0.4882081113        5.9216086012
  H         3.0387012405        0.1296264629        4.8532738395
  O        -0.0380186627        2.5524405693        5.8277452389
  H         0.2054649128        1.9117429596        6.5240341036
  H        -0.6938839648        2.1546306929        5.2168324616
  O         1.1721062255       -2.2393556139        4.1488998035
  H         1.5889560041       -1.7188864775        4.8859134170
  H         0.7739087541       -3.0409213241        4.5303688378
  O        -1.9243829297        3.5004019336        2.3073280630
  H        -1.2616868372        2.7849303956        2.1804774498
  H        -2.3987245143        3.3478539199        3.1252659977
  O         1.0385058511        0.4404516268       -4.9591691334
  H         1.7866595645        0.1879425322       -5.5603996975
  H         1.4128407364        0.3714860829       -4.0509003569
  O        -0.7329949317       -1.9199226531       -0.2245520069
  H        -0.6426512262       -1.1876732220        0.3978187407
  H        -0.4301759800       -2.7244777425        0.3192975551
  O        -3.6821673001        3.6181542274       -2.1004410504
  H        -3.9722628710        4.4364694279       -2.5131518768
  H        -2.7604538001        3.5679843542       -2.2397856630
  O         5.5201937886        4.0440361192        1.9090203653
  H         5.1433051684        3.7058809332        1.0610802295
  H         4.7510454769        4.4526759380        2.2758213582
  O         4.2956599995        0.6941178941       -3.3338979876
  H         4.7603347225        0.7661549384       -4.1868801168
  H         4.5682818279       -0.1744286025       -3.0092089336
  O        -4.7108945393        6.1534664542       -2.9730984380
  H        -5.1811130076        6.4528894440       -2.1779261256
  H        -5.2964722448        6.2397221619       -3.7781074043
  O         6.2332040548       -0.1201343904        0.1043461691
  H         6.6410934781       -0.8022102888        0.7048267052
  H         5.2721948934       -0.1132094137        0.2741455078
  O         3.3551017818        0.3024067004        0.3557104799
  H         3.3800860653        1.2423045384        0.1226602541
  H         2.4624000456        0.0169241062        0.0473498252
  O        -5.5898131546       -5.7913674869       -0.4082731087
  H        -5.4360220626       -6.5151090348        0.2035676205
  H        -6.4813049775       -5.4868710084       -0.2304817291
  O        -4.5685857847        4.9507092693        1.7582017791
  H        -5.4602798498        4.4982093716        1.8777526335
  H        -3.8923115183        4.2593346351        1.8693219699
  O         6.0205044468        1.1755942174       -5.6210745872
  H         6.9403909173        1.5194707049       -5.3986416199
  H         5.7794795006        1.3103715030       -6.5398929908
  O         1.9776498647       -2.2772018180       -1.3549518786
  H         2.4551107130       -3.0012645670       -1.8303584427
  H         1.0595628334       -2.5569211528       -1.2623680220
  O         3.9369866042        3.0193015817       -0.2504942416
  H         4.6162087796        3.1258474400       -0.8942395251
  H         3.3966122914        3.8473351305       -0.2857114627
  O        -0.5627678631       -1.1460800993        2.7508101016
  H         0.0528073722       -1.5439052993        3.4235005388
  H        -1.4272805021       -1.1700523998        3.1929490780
  O         1.8141743982       -6.0480053252        1.7620321251
  H         1.8283035714       -6.6641286760        1.0160497195
  H         2.5234034022       -6.4933069845        2.2301892476
  O         0.0849281449       -3.7357579225       -3.0423352866
  H        -0.8314472355       -3.8706178218       -2.6925719944
  H         0.2417643958       -4.3296205337       -3.7843027055
  O        -4.7439467969        2.3356281148        0.3727080454
  H        -4.2204303092        2.6844491789       -0.3520403117
  H        -5.2203352123        1.5003528369        0.0220038405
  O         4.2672210683       -4.2368217431       -5.8161198094
  H         3.3000009296       -4.3790856220       -5.6855949056
  H         4.4212033179       -3.2751716468       -5.9316229606
  O        -1.0120916622        3.4387159082       -2.7636371605
  H        -1.1778407224        3.4915702505       -3.7090051334
  H        -0.4219322872        4.1610216659       -2.5963121492
  O        -4.1075253767       -5.7013110317        3.5800906534
  H        -3.5209526529       -5.0177300629        3.3016752267
  H        -4.3100142868       -6.2036632819        2.7661615831
  O         3.7076603247        5.3670142869        3.2147335694
  H         4.1935467668        6.0766477005        3.6299237868
  H         3.2884082789        4.8533122517        3.8842006491
  O        -3.6917119530        1.6525122460       -4.8174800829
  H        -3.3510526395        0.8284052276       -4.3906472000
  H        -3.8637432871        2.2323050902       -4.0377449754
  O         3.2434759733        1.1187008810        3.3325785404
  H         3.3456045136        0.5579543199        2.5711529620
  H         4.1363321479        1.5514060720        3.4277973284
  O        -4.3911877952       -1.2728881512        2.1360592584
  H        -5.1936286658       -1.6425769510        2.6520299314
  H        -3.8702270073       -2.1183481208        2.0554776323
  O         0.2692055930        1.4656360020        2.5587707399
  H         1.1120289517        1.4708364121        3.0484788336
  H        -0.0441114510        0.4947400467        2.6690672905
  O        -1.5209219351        5.1583368769        0.1469290054
  H        -1.7183922509        4.5771173840        0.9288525888
  H        -2.2599077763        5.8144466087        0.1295264854
  O        -0.9191113261       -1.8808721050       -4.6462603495
  H        -0.4391080945       -2.3552905809       -3.8901501060
  H        -0.4240294246       -1.1295283343       -4.9828827503
  O        -6.7311987450        3.3476964942       -2.7499114297
  H        -5.7962336769        3.2213714422       -2.5797573634
  H        -7.1755623996        2.4442863762       -2.6983295630
  O         5.4599050600       -1.5757088890       -2.3783932056
  H         6.3596103778       -1.7347768468       -2.7196635492
  H         5.6140656648       -1.0524623949       -1.5379765395
  O        -1.4434538092        0.8960158643       -1.5374877962
  H        -1.5072154391        1.8121171961       -1.8821468930
  H        -0.5493366141        0.6048908434       -1.8379586922
  O         0.2643129786        5.8304968196       -1.6804838845
  H        -0.1188885086        6.6045771690       -2.1597757802
  H        -0.3775034068        5.5918551615       -0.9507019964
  O         5.4094650070       -1.6550766259        6.5241291261
  H         6.0170045263       -2.3785291956        6.7539377672
  H         5.7809766299       -0.9362853667        7.1063460573
  O        -2.1381236440       -5.6193705192       -3.7161154284
  H        -1.9204974470       -6.4436106150       -4.2029856643
  H        -2.9106592152       -5.7562904800       -3.1687308617
  O        -4.4946460023       -2.4248076579       -3.2507534666
  H        -4.5694366409       -2.9346402642       -4.0794703846
  H        -3.9576155447       -1.6384871731       -3.4485033956
  O         2.8693824461        5.5480169324       -0.7103759466
  H         1.9709723091        5.6086957604       -1.0395308987
  H         3.1662079135        6.4126463872       -0.2605071037
  O        -5.1539168666       -3.7975795148       -5.4403797231
  H        -4.3147936088       -4.0866322198       -5.8470414080
  H        -5.6970485161       -4.6308398487       -5.4973959433
  O        -0.2801280014        6.0802398869        3.6034200076
  H        -0.8924579957        5.4085263486        3.3558928667
  H         0.4083430410        6.2076466257        2.9461668731
  O        -2.2583825061       -3.9187442282       -5.8658597030
  H        -2.3009844415       -4.5515375222       -5.1170495682
  H        -1.8937684275       -3.0953515844       -5.4213500208
  O        -2.9131840901       -3.5336511196        2.1694901459
  H        -1.9566216153       -3.5202146953        2.2470782660
  H        -2.9770289060       -3.9780739578        1.2576982151
  O         2.0943282338        4.8308016312       -4.9029605402
  H         2.8091370664        5.0008018253       -4.1969923874
  H         1.3756101181        4.4820418623       -4.4201836013
  O         1.8114926613        0.4232265291       -2.3044464533
  H         1.7285853004       -0.5143685933       -1.9206715740
  H         2.7738889265        0.5436722051       -2.4647416761
  O        -1.4124716709        4.5984644507        7.0269551798
  H        -1.0182699007        3.9190996821        6.4646301519
  H        -2.0903400210        5.0542113352        6.5022297600
  O        -0.0815025304       -4.2555245212        0.7848604143
  H         0.5748957573       -4.8046814231        1.1481164950
  H        -0.8083264910       -4.8374479361        0.4886127738
  O         6.4523385742        6.0336503501        7.0543194094
  H         5.5590717967        5.7109439883        6.9573682803
  H         7.1463852555        5.5114598422        6.5559675784
  O        -0.1012870557       -4.1674104853        5.0890329527
  H        -0.2630238089       -4.9575376773        4.5870290400
  H        -0.9367215052       -4.0715898050        5.6050778220
  O        -3.0576294463       -5.1710393579       -0.1283132187
  H        -4.0337800005       -5.1397127385        0.0040230269
  H        -2.8609041614       -4.4903696844       -0.8722620763
