     192
 i =     1900, time =     2850.000, E =     -1100.0486222131
  O         5.4314869975       -4.5750123896        4.0011018557
  H         6.2129279347       -5.2086736338        3.8047540376
  H         5.6883268787       -4.1219884941        4.7868354915
  O        -4.1861652122        2.6471409293        4.9992053284
  H        -4.1851730720        2.0582433854        4.2105913994
  H        -3.7330655696        2.1331441400        5.7262254919
  O         4.2080311433        1.7090547290        4.6061377391
  H         3.6868811227        2.4262097108        5.0026396203
  H         4.6686880788        2.2181549997        3.8893751935
  O        -2.2591476105       -0.1016250768       -2.8527725809
  H        -2.0722121718        0.5100181602       -2.0871724472
  H        -1.4626024783       -0.3124599127       -3.3387070947
  O        -4.6240191969        4.9376080111        6.1079299678
  H        -4.6787850082        4.1322717069        5.6080440903
  H        -4.3262052263        5.5819742047        5.3591940622
  O         8.2733347350        0.7308468971        2.9836481790
  H         7.7439665465       -0.1330035644        2.9360530075
  H         8.0290534350        1.1496825925        2.1485853693
  O         4.6779862736       -5.6240730694       -0.2552787931
  H         4.1825715480       -5.0808876754        0.3197681461
  H         4.7478606145       -5.0949090444       -1.0840185991
  O        -0.5612247121       -3.1597110315       -1.1657746361
  H        -1.3713074607       -3.0263835121       -1.7442429637
  H        -0.4470979549       -2.2489153475       -0.7567330945
  O         3.5743991757       -2.6922913858        3.5198212891
  H         4.3636477364       -3.3066123911        3.6309108917
  H         3.3748880968       -2.9232573181        2.5487900669
  O         2.5025313489        4.1553012672        5.6251934934
  H         1.5232824612        4.2273880776        5.4974872381
  H         2.6319270093        4.2295340456        6.5956239647
  O         5.0493741689       -3.8735573602       -2.2916499545
  H         4.9572304825       -3.8409722202       -3.2072585379
  H         5.6252550649       -3.1058420260       -2.1277781517
  O         2.8107152345       -3.9959050589        1.0496592847
  H         1.8625257932       -4.0535146248        1.3154253548
  H         2.6310060957       -3.2122012573        0.4682327441
  O         1.5787633313       -5.5529898523       -4.8664208038
  H         1.7275026328       -6.5308120128       -4.7443136975
  H         1.1512067470       -5.4220876700       -5.7755428843
  O         4.9655981686        4.7127532936       -3.0578123701
  H         5.3806371911        3.8770536145       -2.8313444403
  H         5.5826761713        5.2905300421       -3.4361938697
  O         1.5606661606       -1.0947546646        4.4412389113
  H         2.3382361247       -1.6859547587        4.3423988094
  H         1.6927668760       -0.4073831474        3.8039457199
  O        -0.8798000940        2.3172954628        5.5935363813
  H        -0.0024837242        1.8632178383        5.7198815566
  H        -1.4706100225        1.7261450472        6.0183359958
  O        -0.7326839085       -2.1037198384        3.3708682604
  H        -0.3033545484       -2.7667832738        2.7928881286
  H        -0.0431124667       -1.8493305368        4.0702174875
  O        -2.1866095064        4.1217788267        3.2392447292
  H        -1.7699609146        3.4359409038        2.6770691353
  H        -2.4573989542        3.6022849765        4.0009196878
  O         1.5295327492        1.1373653245       -5.9815284958
  H         1.9150407840        0.5449337508       -6.6746505350
  H         2.1601639613        1.1875334367       -5.2539874374
  O        -0.4505701335       -0.8824275910       -0.0348639119
  H        -1.0799280944       -0.4650729069        0.5373614669
  H        -0.1442439053       -0.1689136267       -0.5619747463
  O        -3.4991106509        3.3681964210       -2.8903367570
  H        -3.7594127272        4.2505291520       -2.9982143121
  H        -2.6976107455        3.2790544775       -2.4130944518
  O         5.2680218175        3.4739405404        2.6008856582
  H         4.7757667793        3.1182434025        1.7946975324
  H         4.9224837990        4.2638443506        2.9971030568
  O         5.6127152180        0.2435207159       -3.6718078698
  H         5.6719115238       -0.0081517583       -4.5961643400
  H         5.9253147275       -0.5221825279       -3.1829991775
  O        -3.8234718262        6.1837049036       -2.9345234225
  H        -4.1149965226        6.2073043952       -2.0301719044
  H        -4.6581375772        6.3185338605       -3.3977765322
  O         5.9344320214       -0.4941697305        0.4468407558
  H         5.9447377183       -1.1141072112        1.2088715129
  H         6.7573225877        0.0262882102        0.5691593287
  O         1.8390198366        0.5571205313       -1.5985412357
  H         2.3988342284        0.9331210408       -0.8471554857
  H         2.1886091335       -0.3535319216       -1.5969927957
  O        -5.0776384810       -5.8671452778       -0.2677093039
  H        -4.7287232803       -6.5560466386        0.3646564280
  H        -5.9967649649       -5.7209469382        0.0933849627
  O        -4.7774613318        5.0038335087        2.3102390642
  H        -5.3947441990        4.2976071540        2.4041446685
  H        -3.9034899055        4.5176704240        2.4166108884
  O         6.1260419465       -0.0089472353       -6.2878147167
  H         7.0784477196        0.2594253929       -6.1541063093
  H         5.6382349795        0.6334112464       -6.7581544400
  O         2.6482867783       -2.2974789650       -1.2923500334
  H         3.5120595957       -2.6930200445       -1.6053850284
  H         2.1374467113       -2.5746428609       -2.1442619955
  O         3.5290917175        2.2476115026        0.1437158719
  H         4.3776827491        1.8838805664       -0.0011102255
  H         3.2680266780        3.1314293766       -0.2013403621
  O        -1.5869722687        0.2355557418        2.2312253693
  H        -1.1170470256       -0.5368616383        2.6469835334
  H        -2.4553826183        0.2377841321        2.7039799383
  O         1.7657802119       -7.6618833866        2.1811737467
  H         1.9502056848       -7.7072021729        1.2534402600
  H         2.5264881529       -7.3327556451        2.6506795122
  O         0.9847627365       -3.0962912803       -3.4763566529
  H         0.3810596992       -3.2974151410       -2.7307484089
  H         1.1881459826       -3.9773941208       -3.9161247006
  O        -4.4203992426        1.9330282611       -0.0038375195
  H        -3.5896047984        2.2780293316       -0.3550857395
  H        -5.1044187304        2.2964147100       -0.5769320755
  O         4.1780742176       -4.5950767200       -4.9445970780
  H         3.2627760030       -4.8875896053       -5.0268258329
  H         4.4958967394       -3.9315706848       -5.5917188723
  O        -0.6496254203        3.2594614572       -3.2446113684
  H        -1.2199402263        3.5018707270       -3.9937257678
  H        -0.0656311838        4.0268275818       -2.9798489742
  O        -4.3104692943       -5.5816756941        4.0294897082
  H        -4.0801653526       -4.6736880471        3.6524172995
  H        -4.4750814962       -6.1619472456        3.2954885386
  O         3.9151087251        5.4284720371        3.6121357813
  H         4.0168055683        6.3334243260        3.7980481745
  H         3.7733505613        5.0069120991        4.4975358326
  O        -3.8318425050        1.5953302862       -5.0875961063
  H        -3.2066339430        1.0965826477       -4.4650042811
  H        -3.9816220188        2.3317283312       -4.5021078551
  O         1.3450435222        1.2825947591        2.8971295399
  H         1.3383128380        0.9589282660        1.9558266417
  H         2.1504364464        1.8322336685        2.9763341346
  O        -5.7281540805       -1.5094233096        2.7415057412
  H        -6.4332409216       -1.5378952252        3.4707842764
  H        -5.0246618198       -2.1937805940        2.7986692673
  O        -0.6302180807        2.6564615333        1.5402260669
  H         0.2438474445        2.6285022920        1.9788392031
  H        -0.9839705506        1.7118659980        1.6944339975
  O        -1.2806431760        6.1371444298       -0.4970989757
  H        -1.3480103164        5.9565729660        0.4419359699
  H        -1.7882876942        6.9418960992       -0.5108970934
  O        -0.3458733369       -0.8067598999       -4.6408558146
  H         0.2433128236       -1.5405188987       -4.3160056920
  H         0.1985550326       -0.2268947838       -5.1963818934
  O        -6.1444585372        2.5473547969       -2.1792050685
  H        -5.2355413030        2.7114374118       -2.5318755316
  H        -6.3849532996        1.7218595456       -2.7152275050
  O         6.4814251101       -1.6317134387       -2.0128491923
  H         7.3506064755       -1.9858681644       -2.1430069642
  H         6.4055781391       -1.2521692695       -1.1171950039
  O        -1.7075771145        2.1302430783       -1.1231056636
  H        -1.2735662879        2.5606440334       -1.9451918395
  H        -1.1637077780        2.4476014476       -0.3713745282
  O         0.7243795525        5.3073067116       -2.3635642460
  H         0.8894732752        5.9401234489       -3.0616745131
  H         0.1494143083        5.8234830266       -1.7355916225
  O         5.6182076393       -2.6635679431        6.1477446254
  H         6.3790396679       -2.6589096940        6.7115468824
  H         5.4772375010       -1.7247286348        6.0410648566
  O        -1.4633463375       -5.1962737509       -3.9701553918
  H        -1.3870450686       -5.8909293820       -4.6786889979
  H        -2.1868474470       -5.6625144623       -3.4548465943
  O        -3.2000828545       -2.5391688611       -2.4268463343
  H        -3.7105494678       -2.7230872184       -3.2542688220
  H        -2.7480411767       -1.6537030900       -2.4291895108
  O         2.7575625964        4.7765592338       -0.6074943755
  H         2.1693297701        4.9216399470       -1.4240593403
  H         3.3934489072        5.5341447732       -0.6245069198
  O        -4.5541934442       -3.3119593675       -4.7126510242
  H        -3.7430680226       -3.2816905487       -5.3114927532
  H        -4.9883825721       -4.1628037080       -4.7659460983
  O        -0.3896388142        6.3766572281        2.4419962695
  H        -0.9690753488        5.8030945328        2.9218003086
  H         0.4108004747        5.9075160676        2.2622332252
  O        -2.0638109829       -3.2476392923       -5.7476907277
  H        -1.7775649267       -3.8746877814       -5.0029157345
  H        -1.5024473626       -2.4890307579       -5.6548236506
  O        -3.5705584043       -3.0842418120        2.7272982552
  H        -2.6389811279       -2.8109088583        2.9835469986
  H        -3.5620560618       -3.3951436312        1.7844721603
  O         2.7368151270        4.5413658925       -4.2626481550
  H         3.5757038633        4.5942827772       -3.7759552392
  H         2.5003495182        3.5915849451       -4.0298775694
  O         2.9838404668        1.4709633760       -3.7527304930
  H         2.4976024935        1.2031501863       -2.9194548194
  H         3.8994059975        1.2072244185       -3.7909300521
  O        -1.9178558415        4.6630289141        6.9780927265
  H        -1.3849708568        4.0409456012        6.4775911212
  H        -2.7923865398        4.6394744994        6.6684753773
  O         0.0263404891       -3.7728698008        1.5599354269
  H        -0.2055439821       -4.6832343888        1.7375083048
  H        -0.2347719513       -3.6735940029        0.6515229751
  O         6.3946311498        6.4697794552        7.8949023764
  H         5.5532304904        6.8920913834        7.5828782604
  H         6.7320440575        5.9890434501        7.1342459574
  O         0.1177546871       -4.8969370352        5.2964599220
  H         0.2353872351       -5.1382776726        4.3411583590
  H        -0.6735146077       -4.4476528927        5.4052022192
  O        -3.2789418077       -3.9225780600        0.0367763724
  H        -4.0863279125       -4.4716629378        0.0411916857
  H        -3.1991739761       -3.4729026144       -0.8846497767
