       6
 i =      475, time =       95.000, E =       -34.4444362204
  O         2.7319303514        4.3457381780        3.2144837425
  H         2.2060693824        5.1010096539        3.5552557289
  H         2.7815146337        4.5429789570        2.2918434905
  O         5.8801942681        4.3308041526        4.9850486117
  H         5.6096098364        3.4077145673        5.0653443099
  H         5.0396053903        4.7507980245        4.5915292465