     192
 i =     5800, time =     8700.000, E =     -1100.0598245111
  O         6.5170169671       -3.9654788249        3.2775689441
  H         6.4619098843       -4.9188447755        3.4747903449
  H         6.7980421446       -3.3866744823        3.9889039565
  O        -5.3416694249        2.0375087224        5.7501937018
  H        -4.9050021872        1.3224742850        5.2626784432
  H        -4.8115457649        2.1368169977        6.6342120052
  O         6.4372079465        4.5690915928        6.0639947906
  H         5.5150963926        4.4229081213        5.9039975135
  H         6.8139862498        3.6756016623        5.9044058408
  O        -1.8344301173        0.6122954502       -4.1519960748
  H        -1.6011444753        1.1866651628       -3.3962109305
  H        -1.1620460485       -0.1189662410       -4.0020611782
  O        -3.7260046100        5.8642218819        4.6967840585
  H        -4.6835024705        5.7443522604        4.9277001029
  H        -3.5976939178        6.2656586593        3.8322017026
  O         7.0383066864       -0.0168069310        3.7823093720
  H         6.8611442659       -0.8308516927        4.3155945214
  H         6.6088842611       -0.2524040350        2.9355429188
  O         4.1165400771       -5.6590682776        1.2833606678
  H         4.3018420593       -5.1758992893        0.4088149768
  H         3.8988697684       -6.5780361196        1.0123595885
  O        -0.8979252038       -2.1596811967       -1.1464033811
  H        -1.6449478124       -2.7614318889       -1.3685897496
  H        -1.3574996542       -1.4616227343       -0.6023784409
  O         4.0538169762       -3.3613574177        3.6661930198
  H         4.9770597661       -3.6428763408        3.4145637910
  H         3.6904182077       -3.0461060103        2.8103749090
  O         3.2208006182        2.7644974820        6.0744999563
  H         3.3561941947        1.8834455168        6.4230180315
  H         2.9037243263        3.1821173069        6.9182413879
  O         5.0115758322       -3.1460303596       -5.2922412592
  H         5.1432242795       -2.4811430044       -4.6174892636
  H         4.0260211967       -3.1724699572       -5.3705489241
  O         2.9089047800       -2.4337030982        1.3103759973
  H         2.0553080579       -2.8503103513        1.0568873504
  H         3.5123399010       -2.4887855756        0.5414426075
  O         2.1017355789       -5.2143045861       -4.9096265689
  H         2.4667034862       -6.1109047969       -4.6428554205
  H         2.2264639887       -5.0777251032       -5.8774722254
  O         4.6734075132        4.2146724781       -2.2801772342
  H         4.9767911332        3.2994562561       -2.4129244188
  H         5.4003737711        4.8220031529       -2.2937511737
  O         3.8354179696       -1.0222435582        4.7106860608
  H         3.8510630886       -1.9467728622        4.4510463735
  H         3.7491146385       -0.5057527919        3.8773223550
  O        -1.2121326759        2.4695150136        6.1121614411
  H        -1.2449072221        2.0213570902        5.2205040206
  H        -1.3098108799        1.8286406660        6.8318168986
  O        -1.6079178757       -3.1247479706        2.8233309130
  H        -0.8901941497       -3.1093557122        2.1664869771
  H        -1.2156435935       -3.5558463104        3.5737132270
  O        -1.8252362615        3.8024635876        2.8834352593
  H        -1.4305659570        2.9826845288        3.1071113787
  H        -2.3153686424        4.2032463471        3.5908627141
  O         2.1618019170       -2.0406775858       -5.1243376540
  H         2.4455849380       -1.5881673491       -5.9275662565
  H         2.7004598465       -1.5783419465       -4.4843377081
  O        -1.4207786402       -0.1025193335        0.4060746492
  H        -1.9272542752       -0.2394397678        1.2106580306
  H        -0.4849451229       -0.1972699989        0.6991425725
  O        -3.4122179995        4.1301774137       -2.6340991335
  H        -4.1578393261        4.8029716019       -2.4974221844
  H        -3.4180662998        3.5140509861       -1.8858850192
  O         5.7562946314        5.9018610215        3.2292163103
  H         5.2105405700        6.1884215316        2.4767862581
  H         5.1379813103        5.3211152520        3.7090665683
  O         5.4134131206       -0.9312825132       -3.6390182599
  H         5.3157600662       -0.3728791982       -4.4545788068
  H         6.4184466260       -1.0931598521       -3.4779507163
  O        -5.6698304783        5.9734553277       -2.1299392041
  H        -5.5963333892        6.4662453834       -1.2515861258
  H        -5.8649495233        6.6112129790       -2.8470900057
  O         7.2635660294        1.4480494738       -0.2129325609
  H         8.0871425063        1.8534950232        0.0451623759
  H         7.1937043810        1.4863452455       -1.1970027708
  O         1.2487812356       -0.0806245333        0.9917761823
  H         1.5742712879        0.4644365567        0.2645545627
  H         2.0015337115       -0.5125132582        1.4144351966
  O        -5.3389544340       -5.1776864928        0.5640086331
  H        -4.6738790357       -5.2334712608        1.2653485454
  H        -6.1448922364       -5.4584077299        0.9573427008
  O        -3.5575409330        3.8114759268        0.4901032951
  H        -4.4897850958        3.9218122660        0.8246292937
  H        -2.9528678685        3.6687461757        1.2443499710
  O         4.9423608085        0.4531494065       -5.8160150648
  H         5.6874898903        0.9613855549       -6.2056025902
  H         4.5893417315       -0.1549920595       -6.4661269012
  O         4.4559634929       -4.0907491441       -0.8710293626
  H         5.3095274999       -3.6232494973       -1.0714113425
  H         3.8520433150       -4.0179257609       -1.6213174800
  O         2.5082649759        1.2398368069       -1.3813184319
  H         2.9673114908        1.9427389719       -0.9028284624
  H         1.8503413772        1.7191407690       -1.9284870534
  O        -2.7929222476       -0.6330397453        2.9128667478
  H        -2.5041208972       -1.5372777295        3.0638530806
  H        -3.7169757700       -0.4423220814        3.3149237440
  O         3.0430994274       -8.5940819763        2.3453432660
  H         2.9532718711       -8.3397030249        1.4471238731
  H         2.9757865580       -7.8257874991        2.9776738003
  O         2.4074906778       -3.8978894694       -2.5396106783
  H         2.3534677123       -4.1710533904       -3.4580819492
  H         2.3920167851       -2.9020099405       -2.3942535547
  O        -6.1856162639        4.2710716432        0.8517110799
  H        -6.6937073377        3.4797341795        0.6271824055
  H        -6.3215724107        4.4249535776        1.7692211297
  O         1.9455254300       -4.7285990860       -7.5544517298
  H         1.0583240365       -4.6599627140       -7.8112829456
  H         2.5142064718       -4.2049990038       -8.1009888306
  O         0.5827561732        2.7870847628       -3.6334915131
  H         0.3818586452        2.3648281098       -4.4761799139
  H        -0.0844210358        3.5310297422       -3.6656854095
  O        -3.2046160622       -5.1664978246        2.2173713081
  H        -2.7818169215       -4.3093210046        2.4536984338
  H        -2.7703102306       -5.5677006837        1.3987940364
  O         3.4075864680        5.1171413605        4.5809449499
  H         2.9358502821        5.9582820853        4.7772745783
  H         3.1503300083        4.4423849991        5.2384497348
  O        -3.8514291066        2.2191239942       -4.4660144533
  H        -3.1747482344        1.5395635385       -4.5238570345
  H        -3.5322382735        3.0018782329       -3.9355763809
  O         1.5220720719        1.1602404607        3.5669068079
  H         1.8469186116        1.2898168328        4.4458078085
  H         1.9068502113        1.9415494821        3.1236887083
  O        -8.1748410415        2.4135760318        0.1585805147
  H        -8.4686267005        2.4561206373        1.0932593994
  H        -7.8179438782        1.5266838753        0.1264265809
  O        -1.0782665381        1.2595982749        3.8417187833
  H        -0.1264843797        1.2592005704        3.6506286089
  H        -1.5974514905        0.4841367733        3.4724207831
  O        -2.2208684682        6.0572534030       -0.0722105443
  H        -1.3838852258        5.8306966104        0.4709438634
  H        -2.6560237257        5.1800853992       -0.0288199217
  O        -0.3519826768       -1.5259340215       -3.7571659508
  H        -0.3644309453       -1.7554861578       -2.7846350946
  H         0.5562251379       -1.6546206271       -4.1578491183
  O        -6.2388579252        1.7319456590       -2.8883555066
  H        -5.5127267785        1.9871127440       -3.5379390481
  H        -6.7549759673        0.9669803697       -3.3240419064
  O         6.7515653482       -2.8860148049       -0.8331468587
  H         7.1173531060       -3.5831281923       -0.1877706616
  H         7.5881777220       -2.5473856835       -1.1765295088
  O        -2.0179536614        1.9863363971       -1.7251605418
  H        -1.2712279768        2.4764763627       -1.4704950095
  H        -1.9902741534        1.2096744822       -1.0614876818
  O         1.0216459661        6.3825571582       -1.5029747472
  H         1.4397711247        7.1351481211       -1.9349194163
  H         0.3909480563        6.0917218610       -2.2031362589
  O         6.9518672057       -2.1693693465        5.3638704681
  H         7.7604580641       -2.5274242693        5.7510028424
  H         6.2270409246       -2.5675684916        5.8976637839
  O        -0.8511282905       -7.3637364948       -3.3058247744
  H        -1.0752933044       -6.9078394850       -4.1420153532
  H        -1.6467897516       -7.6874699104       -2.8826684142
  O        -4.1362499835       -1.4337137764       -3.5878469285
  H        -3.7486492302       -2.0165784767       -4.3038347261
  H        -3.6463809683       -0.6227914451       -3.7302431061
  O         2.9797563340        4.7955520541       -0.2243388052
  H         2.4645461436        5.4831248778       -0.6955579062
  H         3.6396013673        4.4478494895       -0.8561486649
  O        -3.7150146770       -4.0352737065       -5.3239391270
  H        -2.8495131261       -4.3737306565       -5.2424390435
  H        -4.4746936874       -4.6671635857       -5.1355478558
  O        -0.1782850259        5.8360609930        1.7438980698
  H        -0.3963674025        5.0104717908        2.2185882433
  H         0.8106612207        5.8649046329        1.6560943833
  O        -0.8937280010       -4.4506431910       -4.6274610564
  H         0.0543020664       -4.5819898875       -4.4457932539
  H        -0.9972389459       -3.5206665549       -4.3714897689
  O        -6.7462752116       -0.4484676679        0.9832568300
  H        -6.1079567961        0.1337063389        0.4671293621
  H        -6.4930171034       -1.3401051394        0.7123730750
  O         2.8548255324        4.7124784632       -4.1684051651
  H         3.6083557976        4.4686722900       -3.5317633749
  H         2.0971456180        4.1184543061       -3.9211245582
  O         2.9575745218       -1.2165139298       -2.4939728403
  H         2.7031085853       -0.5558085947       -1.7837576323
  H         3.9303870589       -1.3845027085       -2.4595070264
  O        -1.8264857880        5.1374523079        6.3753771774
  H        -1.8520411041        4.1915684805        6.1781486685
  H        -2.6120809177        5.5629359587        5.9205637130
  O         0.4201414370       -3.5287817657        0.9135577829
  H         0.4892619937       -4.4800541129        0.7802490591
  H        -0.0065503590       -3.0185000609        0.1992608953
  O         6.5631736150        7.0604114943        7.5748035094
  H         5.7236830357        7.5075115338        7.5774948229
  H         6.3806010343        6.2180734955        7.1043653455
  O        -0.7865980878       -4.8721193906        4.8223898052
  H        -1.2216218065       -5.7257731416        4.8662481296
  H        -0.7930425261       -4.6084263147        5.7837647023
  O        -2.8388298338       -4.0959088382       -1.8137588284
  H        -2.4226370849       -4.9060180638       -1.4020056490
  H        -2.8716227993       -4.3347642089       -2.7579250389
