6
Properties=species:S:1:pos:R:3 i=0 time=0.0 E=-34.4504806384 pbc="F F F"
O       1.27966538      -4.71963640       4.35000000 
H       1.99913551      -4.72682922       3.71000000 
H       0.86071946      -3.85837145       4.25600000 
O      -0.69870596      -6.85830885       3.63500000 
H      -0.81576360      -7.47273745       4.36500000 
H      -0.05057735      -6.20791335       3.94700000 
