       6
 i =       75, time =       15.000, E =       -34.4456600126
  O         2.8272480733        4.3285568660        3.3976287092
  H         1.9992387111        4.5481754187        3.8744030730
  H         2.5786287631        3.7904732882        2.6668391674
  O         5.9349177036        4.3160610277        4.7712310954
  H         6.2874855580        3.5257379337        5.2095261581
  H         4.9438417709        4.1445864131        4.7574484049