       6
 i =      475, time =       95.000, E =       -34.4491150002
  O         2.4797665313        4.2503733864        3.9323373142
  H         2.3826912959        5.2289795432        3.8008210452
  H         1.8790179801        3.8320777128        3.2982846246
  O         5.3511903524        4.2193372005        4.0775583441
  H         5.7953340943        3.8780601323        4.8625756425
  H         4.3669191047        4.0678198672        4.2592756028
