       6
 i =      350, time =       70.000, E =       -34.4464065774
  O         2.7181597546        4.3044093960        3.2791661870
  H         2.1439324848        5.0672503351        3.4529566138
  H         2.7425372418        4.3603679320        2.3100930781
  O         5.9176814138        4.2993948321        4.9629982003
  H         5.9939894266        3.3556558894        5.1538086981
  H         5.2580100563        4.3496936660        4.2227764882