     192
 i =     6300, time =     9450.000, E =     -1100.0688612770
  O         6.5597854313       -2.9862427053        3.2405270831
  H         6.4758650116       -3.9281915466        2.9791580926
  H         6.7886018455       -3.0447676338        4.2171441862
  O        -4.9466262804        2.3798251155        5.9631211555
  H        -4.7007576151        1.6959829583        5.2694097422
  H        -4.6395045307        2.2343105103        6.8622024911
  O         6.0322970270        4.7831452161        6.1093623949
  H         5.2148069391        4.9459165367        5.5944269320
  H         6.2484288400        3.8265818450        6.0406388306
  O        -2.2213927524        0.2057506400       -3.6629713409
  H        -1.7254616427        0.6203502562       -2.9773430580
  H        -1.6267162719       -0.5483165481       -3.9824269735
  O        -4.0997432809        5.4860428556        4.4650262891
  H        -4.9685913480        5.4225065147        4.9855454037
  H        -4.2167347647        5.9546233259        3.6175650266
  O         7.7719173258        0.2729035594        4.2206857675
  H         7.3755334220       -0.5154425537        4.6279985002
  H         7.2795199524        0.3739764676        3.3761557718
  O         4.5923528272       -5.6364610794        0.0229024878
  H         4.3833145789       -4.7906227180       -0.4190727698
  H         4.1530152521       -6.4221920732       -0.3675261474
  O        -1.1676344874       -2.5210332421       -1.3763917861
  H        -1.5132172383       -3.4339817571       -1.3708141219
  H        -1.8583332291       -1.8045913113       -1.3199710658
  O         3.6184757847       -3.2230254992        3.3384049298
  H         4.5523928989       -3.2299729371        3.1664170106
  H         3.2733307211       -2.8674544532        2.4289383801
  O         3.1307321004        2.7743420154        5.4515738155
  H         3.9641065617        2.2524121711        5.7696594350
  H         2.8456888241        3.2763446740        6.2607860314
  O         4.3508624744       -3.6878326239       -4.9843742748
  H         4.0809113843       -2.9133013870       -4.3787408913
  H         3.6765707030       -4.3578294778       -5.0685936764
  O         2.7185206958       -1.9577070795        1.1250280600
  H         1.8654579841       -2.2831293995        0.8402621785
  H         3.3569553286       -2.2855130366        0.4565937939
  O         2.2669074132       -5.4033307887       -5.0681069494
  H         2.3453526460       -6.2782812982       -4.7606261307
  H         2.4960064100       -5.4083771568       -6.0017541796
  O         4.9702443090        4.0150443674       -2.7794163283
  H         5.2630518721        3.0503159299       -2.7142316622
  H         5.7266639224        4.5289786757       -2.3726437583
  O         2.9831313420       -1.0910684036        5.1287617655
  H         3.2060274459       -1.8857034975        4.5470071174
  H         2.5736153658       -0.3541253616        4.5576883832
  O        -1.1085751112        2.2044994174        7.0974690843
  H        -0.9521667478        1.9336042641        6.1873586403
  H        -1.6624369223        1.4766684898        7.5187735990
  O        -1.6597565388       -3.2434575870        2.5465170017
  H        -1.0250255051       -3.0788791429        1.8783109426
  H        -1.2721444358       -3.7866399045        3.2251458449
  O        -2.9111776654        3.1673595958        3.1387854929
  H        -2.2657458847        2.6601008323        3.7255237506
  H        -3.3417846755        3.8769870159        3.6264869195
  O         2.0025699178       -1.4810212583       -4.7269144878
  H         2.4434391140       -1.5182498285       -5.6088218429
  H         2.3971437588       -0.8383446558       -4.1721796705
  O        -2.6676159996       -0.3765453008        0.0843827552
  H        -3.5415221424        0.0144356071       -0.0445237415
  H        -2.5739579623       -0.3955068593        1.0701304882
  O        -3.2773217786        4.0104997448       -2.1437195714
  H        -4.0463357116        4.6287986965       -2.1690820592
  H        -3.0760845726        3.7739159838       -1.2231824034
  O         5.3702780816        7.0838522889        2.5778448272
  H         4.8513012825        6.9519268080        1.7745191792
  H         5.0068120975        6.3870419751        3.1202624402
  O         4.9750426354       -0.7369671362       -4.2572745578
  H         5.0161123795       -0.1728467817       -5.0540703421
  H         5.6969552049       -1.3742752689       -4.2974545942
  O        -5.4400235324        5.7670803685       -2.2995989051
  H        -5.1606499255        6.4521693929       -1.6664935583
  H        -5.5376247593        6.2242423052       -3.1790389056
  O         7.3997959695        0.8649700109       -0.1787673149
  H         7.8015333807        1.6704892363        0.1524396241
  H         6.7476002369        1.0950731944       -0.8714960024
  O         2.4206157275        0.7200840061        1.2798090628
  H         1.7212769234        0.9633758292        0.6191594751
  H         2.5654601140       -0.2186331114        1.1983517624
  O        -5.1928841417       -4.9905664763       -0.2317108457
  H        -4.7887683946       -5.1744158970        0.6332130089
  H        -6.1226222292       -5.2799236558       -0.1948242906
  O        -3.6149468023        2.8695269888        0.5892691695
  H        -4.5066242897        3.2621389275        0.6903381507
  H        -3.2712307859        2.7965984426        1.5127193902
  O         5.2644837377        0.9662084834       -6.4480151159
  H         6.1059418696        1.4760130341       -6.6513170280
  H         4.8778207527        0.5219230212       -7.2228839143
  O         4.3359448126       -3.0245101183       -1.1633175733
  H         5.2622421842       -2.6802765478       -1.2684406469
  H         3.9179984931       -3.2252751185       -2.0146203453
  O         1.5170116059        1.9915287580       -1.0185686937
  H         2.2731134596        2.6108089881       -0.8502409107
  H         1.1354395582        2.3211375822       -1.8638770811
  O        -2.4487365056       -0.5548497988        2.9365674285
  H        -2.2891240309       -1.4991782994        2.9990763014
  H        -3.2762067849       -0.2639658857        3.3486457595
  O         2.1850324344       -7.7975244893        1.6565391762
  H         2.7349612470       -8.3085461424        1.0096867309
  H         2.9315314289       -7.5267500666        2.2470077677
  O         1.9872819112       -3.4534389180       -2.8221969032
  H         2.0705539553       -2.7678451020       -3.4928402337
  H         1.9994280313       -2.9395078459       -1.9732811581
  O        -6.1615627230        4.2218096493        0.5177108989
  H        -6.9126553165        3.7893945927        0.9282382607
  H        -6.1328131153        5.0996809942        0.8121114336
  O         2.4938976467       -5.3068711982       -7.7332241002
  H         1.5116801320       -5.3391491832       -7.8769696333
  H         2.7543892243       -4.5601921562       -8.3467808250
  O         0.7042633445        3.1429074878       -3.4224030189
  H         0.1970955809        2.5535141772       -4.0765508569
  H         0.0413682170        3.7917811659       -3.1248196609
  O        -3.5123898339       -5.5452306255        2.1975708302
  H        -2.8587899558       -4.7339276967        2.2026043027
  H        -2.9695939174       -6.2454705693        1.7879900479
  O         4.0843554515        5.0743313347        4.0014988710
  H         3.3245035288        5.5486451854        4.4038136618
  H         3.8501549835        4.1097342019        4.3535729794
  O        -4.2747184740        1.9163131417       -3.7143237992
  H        -3.6242355939        1.1955244121       -3.5534147104
  H        -3.9902993127        2.6030432080       -3.1061554691
  O         1.6394344778        1.1354327693        3.8740045189
  H         2.2077514808        1.8470890682        4.2877400287
  H         1.9474407372        1.0536912685        2.9915306495
  O        -7.7643922843        2.4046091081        1.5760081585
  H        -8.6415822313        1.9856911321        1.4464278820
  H        -7.0914099173        1.7000581845        1.5273909418
  O        -1.2032938467        1.3647483035        4.1776517692
  H        -0.2698209897        1.3923925703        3.9515140775
  H        -1.5671293685        0.4607176750        3.9654161415
  O        -1.9791287152        5.3173323743        0.5455925038
  H        -1.0227900237        5.4058998155        0.8421116277
  H        -2.2064042415        4.3372604486        0.5585522399
  O        -0.4439445495       -1.8189354206       -4.0709367618
  H        -0.2895888288       -1.8611807163       -3.1022527235
  H         0.3896018499       -1.6254321536       -4.5218465690
  O        -6.7316220198        1.2746908251       -2.4012628488
  H        -5.8560539672        1.6254501976       -2.7324390598
  H        -6.9900240545        0.5876349509       -3.0088713866
  O         6.7604951170       -2.3915766570       -0.9302206752
  H         7.1640773216       -3.1699574762       -0.4927903121
  H         7.3255193137       -2.2232243526       -1.7473176876
  O        -1.3876808230        1.7442226031       -1.3936151997
  H        -0.5176033910        1.8680093911       -1.0187321671
  H        -1.8589802918        1.1496816531       -0.7509728625
  O         1.1450079694        6.0684500632       -2.1732001072
  H         1.3908149965        6.8905271544       -2.6701881891
  H         0.2432075252        5.8923293956       -2.4753568241
  O         6.5948407363       -1.9573681200        5.8264098984
  H         7.1005944770       -2.2696434562        6.6226383630
  H         5.6606250621       -2.1680826936        5.9783155273
  O        -1.1018438455       -7.2848671928       -3.1725437144
  H        -1.5531579208       -7.2473162567       -4.0774012323
  H        -1.8784947310       -7.6857523949       -2.7038656500
  O        -4.4375505906       -1.9710343015       -3.3239778296
  H        -3.8849374983       -2.7722841768       -3.5322654082
  H        -3.7882335378       -1.3790461853       -3.0504829990
  O         3.3458231901        4.6178477593       -0.9884233497
  H         2.6918418647        5.0971861712       -1.4794266964
  H         3.9911875322        4.4276421830       -1.6855224373
  O        -3.2913598493       -4.3001138260       -3.8876331258
  H        -2.3933690088       -4.3396758766       -4.3640732594
  H        -3.9739716491       -4.7096552201       -4.4649632973
  O         0.4703767917        6.2250276487        0.5023423267
  H         1.2698882810        5.7564015591        0.8671673370
  H         0.5847518671        6.0864191699       -0.5023206282
  O        -0.4911455775       -4.3296244093       -4.8024959836
  H         0.4120213971       -4.7380208096       -4.6911668852
  H        -0.4309634224       -3.3434802797       -4.5618674080
  O        -5.8528277117       -0.4847953007        1.8546289690
  H        -5.6947506026       -0.0038916253        1.0636739746
  H        -5.7267401774       -1.4222008838        1.7262628865
  O         2.9327182685        4.3209978626       -4.7023020309
  H         3.7497540241        4.3824068964       -4.1952122894
  H         2.2763650329        3.8691727230       -4.0801681000
  O         2.8944835302       -0.4871544208       -2.1387804137
  H         2.4948292274        0.1188729164       -1.5368511933
  H         3.7763172216       -0.5124985970       -1.7864307536
  O        -2.0084248324        4.7610583579        6.7267423788
  H        -1.7647432001        3.8355479165        6.8262518838
  H        -2.9323503720        4.7525907684        6.3940698202
  O         0.5949055946       -3.3174215443        0.3393422301
  H         0.4817865766       -4.2635483739        0.4352235176
  H        -0.0247330843       -2.9077426004       -0.3048663687
  O         6.6713443448        6.9415172879        7.7011522956
  H         6.0074777130        7.6716373457        7.8590522918
  H         6.4261311058        6.4338223142        6.9652459397
  O        -0.3261440311       -4.9856025462        4.9037657942
  H        -0.5899461946       -5.9296574049        4.8906141225
  H        -0.3843741247       -4.7137506188        5.8506958035
  O        -1.5002722712       -5.1136101910       -1.5171862313
  H        -1.9652364572       -5.6743962965       -0.8638811674
  H        -1.6252827151       -5.5476583636       -2.3658268661
