6
Properties=species:S:1:pos:R:3 i=0 time=0.0 E=-34.4504806384 pbc="F F F"
O       -3.20071216       3.69701946       4.35000000
H       -3.85205319       3.39133358       3.71000000
H       -2.44956607       3.10282038       4.25600000
O       -2.34619637       6.48227991       3.63500000
H       -2.50732166       7.08665036       4.36500000
H       -2.64794404       5.61508135       3.94700000
