       6
 i =      650, time =      130.000, E =       -34.4467813897
  O         2.8005169082        4.4396431107        3.1840457520
  H         1.8426264720        4.5424766205        3.3998184339
  H         2.7960320091        4.7050493231        2.2695089847
  O         5.7562721314        4.3717279104        4.9457280059
  H         5.5463970763        3.4366604463        4.9025014686
  H         4.9223218253        4.8179517170        4.5943788364