     192
 i =      500, time =      750.000, E =     -1100.0610000336
  O         5.2827182712       -4.6850853857        4.7836942304
  H         6.2300049747       -4.8109206942        4.6413465954
  H         5.1825625884       -4.0204483767        5.5408996299
  O        -2.6779407241        2.5365708138        4.5354391760
  H        -2.4404647089        1.8619434092        5.2054721594
  H        -3.1791646635        3.1870854771        4.9913753916
  O         6.1205918165        3.1176900604        4.8695321025
  H         5.2271443701        3.5470377997        4.6811193612
  H         6.1352639646        2.4437879240        4.1911906604
  O        -2.0257912244       -0.0510043148       -3.3811997304
  H        -1.4414071534        0.5239387211       -2.7915935627
  H        -1.4727909932       -0.8276715962       -3.7098221140
  O        -4.1997891151        4.6635765413        6.0646977144
  H        -4.8976000843        4.0417898091        5.7372343945
  H        -4.3980798472        5.3708828716        5.4897046309
  O         6.4157095425        0.9684769416        2.6668582833
  H         6.8337697402        0.0587134253        2.8746246702
  H         7.1687891086        1.4592036087        2.3073947981
  O         3.7482956292       -4.8985640116       -0.5601089687
  H         3.1546349738       -4.3827913773        0.0780197484
  H         3.7700981142       -4.2992055554       -1.3287175794
  O        -2.4415206833       -3.7640651898       -1.7847328824
  H        -3.2246381436       -3.2552168313       -2.1009726421
  H        -1.8115095497       -3.0124727606       -1.5234294137
  O         4.8946831824       -3.2653416555        2.2406429987
  H         4.8042375868       -3.8456663926        3.0190279107
  H         3.9891959415       -3.0545258571        1.9853601001
  O         3.4332900195        3.8903102128        4.6792172045
  H         3.1911238901        3.2771702647        3.9703634137
  H         2.7804209743        3.8763465187        5.4309685997
  O         3.9798308166       -3.2550500824       -2.6930013534
  H         3.9727339483       -3.3852946793       -3.6971294974
  H         4.5562255772       -2.5014199993       -2.5065970497
  O         2.4374136365       -2.6927744419        1.1159582432
  H         1.7663112554       -2.4847703717        1.8091403329
  H         2.0114379469       -2.4641808755        0.2647997065
  O         1.4534532699       -4.8406671376       -5.7379244085
  H         1.6735544108       -5.7951660782       -5.5989840992
  H         0.7632878542       -4.6419404740       -6.3546088888
  O         2.8310889990        3.6534383407       -3.4227634767
  H         3.2859860574        2.8397829010       -3.3504778945
  H         2.7872704889        4.2759811805       -2.6026494517
  O         3.2158636308       -1.5796322840        4.6300155761
  H         4.0935040450       -1.6990779907        5.0557300966
  H         3.2971533380       -0.6543158498        4.2850838069
  O         0.7226453490        2.2937098648        5.2114091286
  H         0.7386414028        1.4054817829        5.5801171489
  H         0.7268413165        2.1362123719        4.2571182084
  O         0.9618647085       -2.5309749969        3.4411956616
  H         1.7518078511       -2.3507949561        3.9318688637
  H         0.5707282923       -3.3858348039        3.6959531804
  O        -1.3698450424        3.5027444461        2.3977957701
  H        -0.6023395485        2.9058563740        2.3772084347
  H        -1.9519811653        3.1078513700        3.0828112769
  O         1.1426389855       -0.5460422555       -6.0807708695
  H         1.7650136887       -1.0908298226       -6.5034907008
  H         1.5582407900       -0.1833269747       -5.2989481845
  O        -0.4185692279       -2.2361778785       -0.7836897672
  H        -0.4964629194       -1.4655061287       -0.2492290349
  H        -0.4241258998       -3.0884604021       -0.2142795024
  O        -4.4453316857        4.0555273692       -2.7059043052
  H        -4.6167164868        5.0467984525       -2.6093538483
  H        -3.4763557921        4.0149807321       -2.4632699034
  O         5.4881494322        5.1874197687        1.5680286953
  H         5.0000128450        4.5217290920        1.1154704579
  H         4.8689327705        5.6316067555        2.1834169325
  O         4.5699544987        1.0290493210       -2.9438525301
  H         5.1550391851        1.3277874058       -3.6489624011
  H         4.8724354536        0.1493880496       -2.6430203734
  O        -4.7022926027        6.7145747266       -2.4280977685
  H        -5.0655157316        6.7607116459       -1.4820798226
  H        -5.4255209650        6.9090453484       -3.1002520381
  O         6.0001459305       -0.5799673448        0.5296654238
  H         6.0933540458       -1.3451273109        1.1377319256
  H         5.9156225500        0.1693964664        1.1048962218
  O         2.6408497718        0.9389187996        0.6782981931
  H         3.1978120224        1.5933655884        0.2127588122
  H         2.6905387172        0.0696398528        0.2622620977
  O        -5.7620538067       -5.4813054195        0.1216572292
  H        -6.2233596383       -6.1067830482        0.6461351846
  H        -6.3514125000       -4.7222958361        0.1330540804
  O        -4.5700957737        5.2328747478        2.6865416265
  H        -5.3266224770        5.2185577514        2.1285224140
  H        -4.2484742731        4.3296640431        2.6218678439
  O         6.2922963153        1.5068156554       -5.1727781980
  H         7.2401909241        1.5567060963       -5.2052594217
  H         6.0336177609        1.8537131455       -6.0243730685
  O         2.0441679652       -1.7809205865       -1.8755545834
  H         2.6496282965       -2.4745026343       -2.1779589139
  H         1.1590830360       -2.1344206650       -1.6394322959
  O         4.2326512127        2.9627335972       -0.2454112514
  H         5.0995463807        2.6291071186       -0.5829144929
  H         3.9308113217        3.5536940398       -0.9276044344
  O        -0.4873506537       -0.7006564153        2.2749979387
  H        -0.0715786117       -1.3754024315        2.8416085310
  H        -1.4116361653       -0.8001149312        2.3657563016
  O         1.7595243378       -6.1574698754        1.4644838767
  H         2.1405740573       -6.4822200014        0.6827923970
  H         2.4639584472       -6.0945373229        2.1684659963
  O         0.2982516574       -4.3462014374       -3.1870491963
  H        -0.4872643141       -4.8902851068       -3.3113163443
  H         0.8940549428       -4.5132601874       -3.9259797227
  O        -4.1152032559        2.5710836852        1.2879091417
  H        -3.2500611864        2.7997048716        0.9288649412
  H        -4.6984508733        2.3077689848        0.5470355588
  O         3.8584986356       -3.6221666645       -5.5349787022
  H         2.9944873806       -3.9247914290       -5.8796921278
  H         3.9069474510       -2.6575984306       -5.5786242023
  O        -1.5980488422        3.4706103134       -2.4868690727
  H        -1.3165434627        3.3942456045       -3.4228711535
  H        -1.0345483895        4.2100169427       -2.1967358677
  O        -4.4071358578       -5.2840084013        4.4511952587
  H        -3.8335447615       -4.5667519595        4.1252516192
  H        -4.3857079613       -5.8891792667        3.6751900712
  O         3.5373952534        6.2387537742        3.4420985481
  H         4.1516547673        6.7893058736        3.8992499589
  H         3.5279086928        5.4258440854        3.9493288693
  O        -3.5462750741        1.8635558440       -4.6076809841
  H        -2.9335450227        1.2567041985       -4.0700318871
  H        -3.7752634461        2.6106348298       -4.0279737610
  O         3.5397102516        0.8224461219        3.4541913897
  H         3.2789604541        0.7257267396        2.5177647679
  H         4.5167254985        0.8442263189        3.4410127188
  O        -5.1940012902       -1.6014685446        2.7306039635
  H        -5.8698848432       -2.3015095556        2.8243110605
  H        -4.3966504827       -1.9577454191        3.1390160185
  O         0.7317745551        1.7534268020        2.3751688009
  H         1.4114737455        1.4984203966        1.7169916924
  H         0.1616386959        0.9482213148        2.3499832021
  O        -2.1557324524        5.0303816816        0.0066686624
  H        -1.8719992811        4.6492854113        0.8167645986
  H        -2.6138150665        5.8593818237        0.1563689399
  O        -0.7800968866       -2.0159916866       -4.4916016856
  H        -0.3667037597       -2.5882853835       -3.8233899892
  H        -0.0604667354       -1.5197843497       -4.9730074770
  O        -5.6786214978        2.2515621684       -0.9344700444
  H        -5.3525043803        2.9208335297       -1.5934586073
  H        -5.7285383859        1.3563200707       -1.3326914775
  O         5.8255184336       -1.2267971235       -1.9321704255
  H         6.6624176678       -1.4590415271       -2.4417536581
  H         6.1641411335       -1.2642344134       -0.9865296886
  O        -0.1249434905        1.0420823448       -1.8759088153
  H        -0.5144568214        1.9197527885       -2.0261640846
  H         0.6891295710        1.1014053936       -2.4087806710
  O         0.1831257423        5.5787201349       -1.4657291861
  H         0.2941332992        6.5855852362       -1.6624921097
  H        -0.4928899223        5.5620580639       -0.7167018415
  O         5.6724627521       -1.2993061639        6.4113181290
  H         6.4343594291       -1.8162221188        6.7298427812
  H         5.9118834715       -0.4024579022        6.7087741032
  O        -2.0313552170       -5.7820709258       -3.8049759760
  H        -1.9883141429       -6.7585646323       -3.9415751870
  H        -2.7819233687       -5.6658149353       -3.2047820044
  O        -4.1468824665       -1.7100143242       -2.8592998340
  H        -4.3715537866       -2.0941796878       -3.7738113566
  H        -3.4805912871       -1.0171165966       -3.0276768784
  O         2.8311627071        5.1582138548       -1.2671972056
  H         1.8937081386        5.3169834162       -1.2819886588
  H         3.2934375329        6.0022434746       -1.0951222343
  O        -5.0066795037       -3.3002609495       -5.3886242483
  H        -4.1169797844       -3.6221669557       -5.6191138350
  H        -5.5488295299       -4.0615665074       -5.0431304198
  O        -0.3840173034        5.6812085540        3.2058263778
  H        -0.9506268776        4.9042449479        3.1006591550
  H         0.2730548803        5.6732720824        2.4691482652
  O        -2.2164274415       -3.7228022118       -5.7697622479
  H        -2.2442187175       -4.4570440975       -5.0324877749
  H        -1.5634175918       -3.1248741606       -5.3351288194
  O        -2.8566407525       -3.3076651996        3.1542213431
  H        -2.0141799131       -3.6417021170        3.5209616787
  H        -3.0252304557       -3.7759524099        2.2714632721
  O         2.2298223220        4.8763817211       -5.5168566335
  H         2.3669633248        4.3248239059       -4.6814389260
  H         1.3931160252        4.4208470590       -5.8018529057
  O         1.8752918934        0.3907335351       -3.5412286987
  H         1.9406050847       -0.4328719368       -2.9030689653
  H         2.7226014972        0.8067959371       -3.5393309632
  O        -1.1399414676        3.6285581808        7.1945243802
  H        -0.6192743089        3.2954648398        6.5148920086
  H        -2.0374538375        3.7276853813        6.9611156493
  O        -0.4280622548       -4.5253631192        0.4422022551
  H         0.4418583862       -4.7509595781        0.7713112372
  H        -1.1558046834       -4.8325191522        0.9501594285
  O         6.0996887897        6.5238543920        7.5717840691
  H         5.2873711334        6.5024510815        7.0303084657
  H         6.3988334599        5.5966244744        7.6530526320
  O        -0.7366271373       -4.4939747319        4.5240398847
  H        -0.7629226238       -5.3982001312        4.0834322241
  H        -1.4626251539       -4.4037738664        5.1126038333
  O        -3.1528504100       -4.7138646349        0.6945900250
  H        -4.1066492601       -5.0184697804        0.6635709824
  H        -3.0255234916       -4.3572359896       -0.2762318231
