6
Properties=species:S:1:pos:R:3 i=0 time=0.0 E=-34.4504806384 pbc="F F F"
O      -3.18240126       0.17210550       5.71644235 
H      -3.56416386       0.86159490       5.16313349 
H      -2.72910434      -0.42223130       5.11029495 
O      -1.17371977       1.39860348       7.57654971 
H      -1.40021618       1.21495379       8.49257218 
H      -1.86659476       0.97169183       7.04919813 
