       6
 i =      450, time =       90.000, E =       -34.4482152396
  O         2.4668432480        4.2548368276        3.9655302483
  H         2.4088669128        5.1682701973        3.6904328417
  H         1.8956038673        3.8457971803        3.2871116750
  O         5.3576228784        4.2156097671        4.0535421187
  H         5.8862139602        3.8804826750        4.8090765398
  H         4.4569485375        4.0018095998        4.2665318105
