     192
 i =     5400, time =     8100.000, E =     -1100.0681847922
  O         6.0243752759       -3.1328558874        3.2626195375
  H         6.1607501262       -4.0628382254        2.9982966962
  H         6.6430064277       -2.9977780927        4.0108055792
  O        -5.6649961983        1.6599531064        5.6195859248
  H        -4.9446225915        1.3715698892        5.1013580495
  H        -5.2995392370        1.9264083436        6.5004299690
  O         6.8065562465        5.0046331548        5.6285798636
  H         6.4158275181        5.1784723397        4.7831680795
  H         6.2265556565        4.2645375157        5.9345875839
  O        -2.4779607008        0.8450763388       -4.1367686406
  H        -2.0406426090        1.1384920909       -3.3067292675
  H        -2.1333454958       -0.0849953242       -4.3049039628
  O        -3.3274632494        4.8566094329        3.8189389125
  H        -4.1279175725        4.4296514158        4.0572387837
  H        -3.5247851449        5.2814540153        2.9608598064
  O         8.0536733657       -0.3833759773        4.2207114160
  H         7.9176055987       -1.2506943670        4.6303463034
  H         7.3356339189       -0.3350270605        3.5818707836
  O         4.1184584398       -5.5181208977        0.7700739115
  H         3.8191576257       -4.7395113753        0.2925015608
  H         3.5762440692       -6.2148397636        0.3116858213
  O        -1.5479007599       -1.5226507171       -1.5780570684
  H        -1.9509391398       -2.3754424121       -1.4700913572
  H        -1.9375361611       -0.8782921472       -0.8821548308
  O         3.4298685738       -2.9749011495        3.9297016610
  H         4.4547271536       -3.0481589642        3.8092087732
  H         2.9683389938       -2.9593133886        3.0658035825
  O         4.3619885127        3.4289752856        6.5355425201
  H         4.2722622857        2.4719683431        6.4544317022
  H         4.0779945283        3.7422975920        7.4093948457
  O         4.9667197394       -2.7124691905       -5.6921123367
  H         4.7893812761       -2.4523430641       -4.7853874285
  H         4.2227647988       -3.2044819222       -5.9566634388
  O         2.2647665805       -2.4234762890        1.3426160913
  H         1.4857865244       -3.0040724160        1.1359237117
  H         2.9195064705       -2.6117447994        0.6408991159
  O         1.7657455231       -5.2265334897       -4.1179617228
  H         2.2468971902       -6.0757705208       -4.1510455860
  H         1.7691879726       -4.9447732865       -5.0859909321
  O         4.6679471525        4.1435328615       -2.0058092690
  H         5.1818731291        3.3283986284       -1.8504923738
  H         5.2754592830        4.8830077897       -1.8841461487
  O         3.0566287972       -0.6490065388        5.0858535504
  H         3.1737752601       -1.4748055698        4.5890556210
  H         3.0822252987        0.0756659159        4.4397531187
  O        -0.6235868784        2.3737383061        6.3923308635
  H        -0.5240095126        1.6885798133        5.7216423502
  H        -1.3470234242        2.1165642176        6.9872421421
  O        -1.8436213527       -4.4559960892        2.4949884189
  H        -1.2864264815       -4.5431504863        1.7152426596
  H        -1.3664387442       -4.5831203075        3.3272444566
  O        -1.6886805757        2.9021800407        2.6212456193
  H        -1.3246870418        2.1507502243        3.0761090011
  H        -2.3033505424        3.4286962202        3.2427795539
  O         1.1297122251       -0.6862680953       -5.3796786553
  H         1.6017809703       -0.7335760315       -6.2699112725
  H         1.8901276482       -0.3814353058       -4.8012988713
  O        -1.5558318165        0.1135930569        0.4777439398
  H        -1.9914083084       -0.0551969915        1.3139321665
  H        -0.5718272810        0.0090650008        0.5875606823
  O        -3.9209034665        4.0055262530       -2.5976014470
  H        -4.4471566338        4.7114690918       -2.2650884667
  H        -3.4809233841        3.5428355225       -1.8670365501
  O         5.8346264170        6.6305553224        3.0002971067
  H         5.2300462683        6.6668499585        2.1799579304
  H         5.3076228614        6.2420721128        3.6767001631
  O         5.1221053768       -0.9660139575       -3.7556813489
  H         4.9123763382       -0.1863130706       -4.4349449556
  H         6.0642418668       -0.9081215798       -3.5515159317
  O        -5.5673153787        6.1646000899       -2.2650874506
  H        -5.5711886942        6.6317357720       -1.4193955921
  H        -5.7877225836        6.7903423110       -2.9615489241
  O         8.2023195103        0.1528450623       -0.7285939696
  H         8.5562061144        0.9328633900       -0.2296957934
  H         7.3597437593        0.4559133680       -1.0934354794
  O         1.4358220402        0.2566035467        0.9106552990
  H         1.8384873154        0.8077773507        0.2068258985
  H         1.9087952403       -0.6451385369        0.9399519030
  O        -5.5672468889       -4.9690068237        0.1437849633
  H        -4.8766649454       -5.4393271219        0.6562964415
  H        -6.3672795851       -5.3484709068        0.5014716864
  O        -3.5863214886        2.4071682014        0.3038426463
  H        -4.1820691919        3.1939695838        0.4030999421
  H        -2.9001380636        2.4399457055        1.0139530205
  O         4.6956620591        0.5962321166       -5.7427339444
  H         5.4835246486        0.8854533600       -6.2500933267
  H         4.1497737496        0.0506592442       -6.3377283650
  O         3.8881006280       -3.2213704035       -0.8663843847
  H         4.7134560590       -2.8263606031       -1.2541064242
  H         3.1231980956       -3.0123271396       -1.4347328306
  O         3.0536095538        1.8207324432       -0.8053903054
  H         4.0236937254        1.8860819060       -0.6443521592
  H         2.9177008661        2.7351223368       -0.5851653746
  O        -2.1953764689       -1.1024159953        2.9679318118
  H        -2.1068536012       -2.0758087334        2.9348593729
  H        -3.0929455461       -0.9221862229        3.3987820622
  O         3.2531193926       -8.3969279286        2.2335890624
  H         3.2946112747       -7.8971259715        1.4008139464
  H         3.5614088974       -7.8121561436        2.9861382062
  O         1.6815486145       -2.8127749124       -2.3876967606
  H         1.7453405023       -3.3910044633       -3.1564165932
  H         1.9038786733       -1.9468595829       -2.6443794447
  O        -5.4968477385        4.1744572780        0.6377199830
  H        -6.0329735260        3.4231235404        0.9645325334
  H        -5.3544962356        4.5896955275        1.4781566460
  O         2.2652180875       -4.8956316946       -7.1033753552
  H         1.3450061821       -5.1514452640       -7.3773546070
  H         2.6531418412       -4.2633027137       -7.7454321159
  O         0.6500344821        3.2285341954       -3.6227625217
  H         0.6829684182        2.8393903250       -4.5191765748
  H         0.0125547518        3.9315907066       -3.8392550792
  O        -3.5228328846       -6.2280064237        1.5443505843
  H        -2.9698991289       -5.5181660356        1.9556896615
  H        -2.8911831239       -6.8653018228        1.1279679145
  O         4.0036270033        5.2992229080        4.6014893523
  H         3.4091361552        6.1074029676        4.8225597393
  H         3.7146092816        4.5905121256        5.1860338217
  O        -4.9766632737        1.8132070453       -4.0003657107
  H        -4.2166756438        1.1683518079       -3.9469938912
  H        -4.6425988176        2.6903870742       -3.7189139805
  O         2.2265414426        1.5667342572        3.1764254575
  H         2.5008384379        2.4711461467        2.9263216334
  H         2.0172112432        1.1181279184        2.2838198962
  O        -7.0897372587        2.0479603501        1.3469584866
  H        -7.6900902621        2.4017032635        2.0199834355
  H        -6.7989920463        1.1353024851        1.6446282898
  O        -0.2182452696        0.9383074724        4.1934846227
  H         0.6942291523        1.0434470895        3.9013091627
  H        -0.4345188295        0.1011063404        3.8062457121
  O        -1.6604315437        4.8192096467       -0.0277850115
  H        -0.9325110548        4.4982971840        0.5419410968
  H        -1.9320673921        4.0548850969       -0.5254840577
  O        -1.1132232341       -1.5577417652       -4.2893062889
  H        -1.2273063140       -1.5609826386       -3.3190791405
  H        -0.1920807576       -1.2408616132       -4.4336679351
  O        -6.7040170899        1.6594378919       -2.1305982892
  H        -5.9819548691        1.6571435514       -2.8063493985
  H        -7.2667139266        0.9800516187       -2.4154318255
  O         6.4364218872       -2.5369269588       -1.2053648442
  H         6.7253207121       -3.3703164469       -0.7413380453
  H         7.0933523294       -2.4653361939       -1.9928152225
  O        -1.3715420750        2.1382843551       -1.9262436699
  H        -0.5147258455        2.3884563860       -2.3508801544
  H        -1.2123800626        1.3329234521       -1.3771291567
  O         0.5139879397        6.5990104663       -1.2492429493
  H         0.4919358303        6.7116825377       -2.1913220241
  H        -0.2985629947        6.0255768508       -1.0904943420
  O         7.3002770185       -2.6547051779        5.5768516106
  H         7.9208142891       -3.3104032943        5.9848969558
  H         6.4212998572       -2.7534135741        5.9990840669
  O        -1.4754892036       -7.5137695246       -3.7411363106
  H        -1.6300001443       -7.1954812375       -4.6751116035
  H        -2.3578194076       -7.7919708763       -3.4659882971
  O        -4.6042325157       -1.3814056778       -3.2048045508
  H        -4.0700984254       -2.0136101951       -3.6655208611
  H        -4.0094502929       -0.9483404509       -2.5783988489
  O         2.5279695097        5.0271683987       -0.3607678913
  H         1.6689070797        5.3498610452       -0.7360337880
  H         3.1213180947        4.6171400849       -1.0757140371
  O        -3.6031429435       -3.7646984971       -4.2915392187
  H        -2.8472387094       -4.2102004802       -4.6611987013
  H        -4.3586737520       -4.2928066435       -4.5801068544
  O         0.3832785198        4.7729756391        1.9165236153
  H        -0.1896699581        4.0536471496        2.3195255187
  H         1.3034281324        4.4895753929        2.0710815367
  O        -0.8819362019       -4.2388416466       -5.1578718810
  H        -0.5372316431       -4.7171819994       -4.3844944182
  H        -0.9230807594       -3.2633783138       -4.8908136718
  O        -5.9139655995       -0.2432479807        1.6339737303
  H        -5.3449163401       -0.0498104347        0.8814668324
  H        -6.4954090009       -0.9785852430        1.3139594582
  O         2.8618778238        4.7533245305       -3.8292694930
  H         3.5788469497        4.4791772395       -3.2526575198
  H         2.0726670585        4.2119692359       -3.7038901745
  O         2.4781864668        0.1238178562       -3.0603605594
  H         2.5574790282        0.8359010886       -2.4677233153
  H         3.4252559157       -0.2683147792       -3.1002636061
  O        -1.6151628563        4.9935691956        6.0474838512
  H        -1.3738821575        4.0337115907        6.0800494341
  H        -2.4196045133        4.9929524385        5.4810950961
  O         0.0156833805       -3.9173547001        0.5240264319
  H         0.1869718550       -4.5784112921       -0.2346442933
  H        -0.3503917165       -3.1035845378       -0.0078721245
  O         6.5675380520        7.0089593842        7.4326211975
  H         5.8513095047        7.5661659018        7.1950709637
  H         6.4744383671        6.2755368157        6.8096620706
  O        -0.3011730304       -5.4832415808        4.9595481745
  H        -0.7072119921       -6.3564353107        5.3172384113
  H        -0.4567660247       -4.8354992476        5.6454970772
  O        -2.6889682197       -3.9464920664       -1.5397962688
  H        -3.1541634205       -4.4786791688       -0.8444866974
  H        -3.1219046531       -4.0705114228       -2.3787191900
