6
Properties=species:S:1:pos:R:3 i=0 time=0.0 E=-34.4504806384 pbc="F F F"
O       -4.41275238       3.14713518      -3.66853756
H       -3.63429432       3.71201919      -3.62165370
H       -4.10714586       2.26770464      -3.42494858
O       -6.43123449       4.07915648      -1.65454544
H       -7.26489943       4.29513182      -2.08172505
H       -5.84253422       3.79092018      -2.36923476
