6
Properties=species:S:1:pos:R:3 i=0 time=0.0 E=-34.4504806384 pbc="F F F"
O      -4.29565790       2.33662887       4.35000000 
H      -4.79805576       1.82157024       3.71000000 
H      -3.38362214       2.04425279       4.25600000 
O      -4.47430082       5.24454216       3.63500000 
H      -4.83751250       5.75375948       4.36500000 
H      -4.45209577       4.32661409       3.94700000 
