6
Properties=species:S:1:pos:R:3 i=0 time=0.0 E=-34.4504806384 pbc="F F F"
O       -4.09320260      -2.67548196       4.35000000
H       -3.87771488      -3.36196141       3.71000000
H       -3.40355237      -2.01089520       4.25600000
O       -6.73855133      -1.45482513       3.63500000
H       -7.35908046      -1.53336558       4.36500000
H       -5.91970570      -1.87024881       3.94700000
