6
Properties=species:S:1:pos:R:3 i=0 time=0.0 E=-34.4504806384 pbc="F F F"
O        4.03742685       3.99395532       3.25307801
H        4.53348934       3.19140999       3.06038134
H        3.29329078       3.98884999       2.64286130
O        3.00290610       3.86336209       6.06587204
H        3.31427020       4.61415026       6.57918921
H        3.37979647       3.98254593       5.18033386
