       6
 i =      750, time =      150.000, E =       -34.4469046554
  O         2.5042690249        4.2467054302        3.6283240020
  H         1.9383828155        4.4524035499        4.3806998317
  H         1.8692774364        3.7040489231        3.1102690619
  O         5.3795488515        4.2391073485        4.3856193124
  H         4.7911286317        3.9311569412        5.1205402480
  H         4.7105686732        4.5099508711        3.6980935654
