6
Properties=species:S:1:pos:R:3 i=0 time=0.0 E=-34.4504806384 pbc="F F F"
O       -4.77229601      -1.06663116       4.35000000
H       -4.81176049      -1.78505412       3.71000000
H       -3.89310236      -0.68674759       4.25600000
O       -6.82005566       1.00569927       3.63500000
H       -7.42861381       1.15020527       4.36500000
H       -6.19939325       0.32904340       3.94700000
