     192
 i =     6700, time =    10050.000, E =     -1100.0776955748
  O         5.8096665286       -3.5732230206        2.8974492075
  H         5.3939156621       -4.4065229054        2.7361080139
  H         6.5705270173       -3.7753548146        3.4431379216
  O        -5.8512981117        1.8019223979        5.5768988076
  H        -5.2721864982        1.1027894080        5.1799341685
  H        -5.4099924529        2.1154669851        6.4172731671
  O         6.2711001622        4.7051646420        4.8249164178
  H         5.4339084997        4.8744110367        4.4183886571
  H         6.2759095285        3.7113918777        4.8117468792
  O        -2.0365015484        1.3883595572       -3.8613875236
  H        -1.7617614300        1.7078042046       -2.9431055316
  H        -1.6136512007        0.4716658163       -3.9396229642
  O        -3.5491295505        5.4747461973        4.6610499428
  H        -4.4812756917        5.1006823881        4.6500424240
  H        -3.5742302620        5.9308081848        3.7887014068
  O         7.9790593344       -0.3258957474        4.2935212312
  H         8.0499471912       -1.2974440839        4.4379838365
  H         7.6257415372       -0.3637649919        3.3493589218
  O         4.1998469523       -5.3207650075       -0.1699323135
  H         4.1280913448       -4.4295457362       -0.5742285578
  H         3.7647340460       -6.0001502259       -0.6722223490
  O        -0.7574494097       -2.3278636921       -1.3896526763
  H        -1.2578857761       -3.1380480087       -1.6587180139
  H        -1.3681876335       -1.8003861556       -0.7879770035
  O         3.1870785816       -3.0706613612        3.3780231499
  H         4.1825938570       -3.1837166085        3.2257774756
  H         2.9046859811       -2.7642127771        2.5049200403
  O         3.2913101389        2.7026954985        5.9035730936
  H         3.8895942541        1.9950435831        6.3179991097
  H         3.1840570817        3.3692667731        6.7015557174
  O         5.1377530522       -4.6184274355       -4.4838636822
  H         5.2529847426       -3.6715312828       -4.2521332544
  H         4.1401002443       -4.7500444116       -4.5150172710
  O         2.3398906158       -2.0817112225        0.9340756161
  H         1.6356923973       -2.7147353575        0.9566157926
  H         2.8470048630       -2.4405414987        0.1670526664
  O         2.3946164750       -5.1191911635       -4.5259189900
  H         2.5942419279       -6.0523872772       -4.3118045295
  H         2.4702388949       -5.0916197728       -5.5090520857
  O         5.1551659653        4.0447827943       -2.3427012810
  H         5.5140330891        3.1408549112       -2.3700967575
  H         5.7500538174        4.7516139480       -2.0645161715
  O         2.6970729960       -1.3298762807        5.2509641308
  H         2.7828625388       -2.0702860652        4.5834538737
  H         2.3181612247       -0.6090785495        4.7851968581
  O        -1.0727015290        2.7943031787        6.5309979130
  H        -0.8726255102        2.3917458795        5.7171087707
  H        -1.6854160316        2.2366048974        7.0895575289
  O        -1.5159517830       -3.1951748709        3.2740460029
  H        -1.0853988673       -3.3172312730        2.4041818181
  H        -1.0105404827       -3.7315637028        3.8967253566
  O        -1.9700637366        3.6771783013        2.9865305977
  H        -1.4676540565        2.9172335330        3.3339747296
  H        -2.4447364435        3.9837250327        3.7772625124
  O         2.0943531357       -1.6646444467       -4.2467524415
  H         2.1281291073       -1.6582051593       -5.2305811790
  H         2.4777390096       -0.8320673993       -3.9817635699
  O        -2.2869975149       -0.5132969536        0.2619364168
  H        -3.1696144912       -0.1984479769        0.0341655625
  H        -2.2231182286       -0.5126067125        1.2917053549
  O        -3.2979120852        4.1809612519       -2.3465083577
  H        -3.8892902943        4.9185691501       -2.2114814931
  H        -3.3148216911        3.7479796486       -1.4561993340
  O         4.6199461586        6.2594239839        2.3463871123
  H         4.2351261415        6.5994491249        1.5115394480
  H         3.8766223476        5.7952931745        2.8054939103
  O         5.5403772253       -1.9018860910       -3.4173778333
  H         5.2401851671       -1.1599010768       -3.9468467004
  H         6.5229127373       -1.8200052599       -3.3895432488
  O        -5.5909329821        6.1156254214       -2.4284673967
  H        -5.1591778653        6.6318196673       -1.7621066079
  H        -5.9141637423        6.6008927851       -3.1594161487
  O         8.0461597472        0.7085491030       -0.9353844792
  H         8.1593490576        1.6280670396       -0.6015433723
  H         7.2248180910        0.8376734073       -1.4596140357
  O         2.1350040942        0.4872900382        1.1187192070
  H         1.4756432181        0.8545045489        0.5436199323
  H         2.0264048178       -0.4388747332        1.2276023554
  O        -5.1697209232       -4.9190721051        0.2924428800
  H        -4.8357655661       -5.3876649795        1.0620436209
  H        -6.1020182441       -5.2045091525        0.2282374583
  O        -3.8128066629        3.1758466563        0.4780311239
  H        -4.6835461666        3.4660755484        0.7208587378
  H        -3.3949547231        2.8629837835        1.2711319598
  O         4.7822262342        0.2181234783       -5.5841820282
  H         5.5482323046        0.6537497193       -5.9521471688
  H         4.2225985981       -0.0510186296       -6.3483025086
  O         4.6341622556       -2.4461676348       -0.9437202422
  H         5.5588885453       -2.3320455221       -0.6734909311
  H         4.7734677607       -2.3141226034       -1.9010470589
  O         1.4283611281        1.9998552255       -1.3601082852
  H         1.9451941034        2.6886152115       -0.8662599744
  H         1.4095558854        2.2971175390       -2.2834094445
  O        -2.0387641355       -0.5005260335        3.1028203645
  H        -1.6659148634       -1.3854600817        3.3412093396
  H        -2.9544565711       -0.3494366015        3.5802855301
  O         1.4490375667       -8.4894343174        1.5612457832
  H         2.3685762653       -8.4423447040        1.4228838916
  H         1.3788419003       -8.3200034011        2.4840293395
  O         1.6539399042       -3.4899194590       -2.1109183577
  H         1.8123553494       -2.9491276719       -2.9067894305
  H         1.0327406958       -2.8996190960       -1.6487842657
  O        -6.2818280651        4.1443651203        0.6830107393
  H        -6.9641740547        3.4446330374        0.5189743270
  H        -6.7277582934        4.7374599004        1.2903038825
  O         2.4924701422       -5.0924810596       -7.1726330164
  H         1.6354410513       -5.0975852958       -7.6284535799
  H         2.8771776123       -4.3320794097       -7.6318777769
  O         0.7995263035        3.1865994193       -3.9074320750
  H         0.1932850727        2.8751629449       -4.5768119560
  H         0.1315146902        3.9214849610       -3.6043772227
  O        -3.4008708725       -5.5483738617        2.2580326105
  H        -3.3398555667       -4.6251545013        2.2402691213
  H        -2.8477831956       -5.9403391822        1.6221420937
  O         3.0563736800        4.8508049571        4.2258771846
  H         2.6480223277        5.5405355299        4.8064036362
  H         3.1889922193        4.0235929344        4.6923772140
  O        -4.5683215460        2.5946478206       -4.3813612982
  H        -3.7232195848        2.2098375644       -4.3191568876
  H        -4.4452447926        3.4194831294       -3.8786110856
  O         1.9919083982        1.0847996859        3.8977109328
  H         2.6260464482        1.6701894413        4.2772252737
  H         2.1635807347        0.9134076627        2.9574121503
  O        -7.9456481075        1.8542150789        1.0778593187
  H        -8.8366510952        1.3743194278        1.1205097496
  H        -7.3262245057        1.2083386374        1.4117473743
  O        -0.6405030724        1.4848819654        4.2397273027
  H         0.2044127830        1.4132407921        3.8605390291
  H        -1.1293087594        0.6955975934        3.9225285872
  O        -2.2996700394        5.7543057051        0.0532825819
  H        -1.4168765752        5.5972533701        0.4835445995
  H        -2.7401371442        4.8900196412        0.1370144317
  O        -0.8421262580       -0.9749716016       -4.0075260300
  H        -0.9644561618       -1.5233458773       -3.2044274341
  H         0.1561161922       -0.8620619381       -4.0186310558
  O        -6.6726438897        1.5223679736       -2.6361770912
  H        -6.3778865015        1.3692199075       -3.5904410800
  H        -7.5422706938        1.1455782742       -2.5350242340
  O         7.5493955969       -2.3331854833       -0.2110431999
  H         7.5675611573       -3.3021849859        0.0743198851
  H         7.8921096499       -2.2308946913       -1.1148544811
  O        -1.5314845919        2.0453929897       -1.2455020483
  H        -0.6105357461        2.2687842837       -1.0482759875
  H        -1.7256267256        1.1718340860       -0.8525342510
  O         1.0619761141        6.2929792510       -1.7462583181
  H         1.3337383408        7.2057413703       -2.0083689112
  H         0.5534176738        6.0179887423       -2.6012568318
  O         7.9589640835       -3.4880059136        4.4306080688
  H         8.9227027932       -3.4208058552        4.2687797116
  H         7.7536078172       -3.9987251604        5.2569390813
  O        -1.0088189125       -7.1342519399       -3.4527166120
  H        -1.3267558208       -6.9504457702       -4.3822693383
  H        -1.7206379912       -7.5007967300       -2.9212238186
  O        -4.1715795776       -2.2178958953       -3.0464667712
  H        -3.7918010436       -2.9362304235       -3.5435510903
  H        -3.6172370606       -1.4485828045       -3.3147674740
  O         2.9211154660        4.4516428296       -0.6965462451
  H         2.2033207628        4.8263429062       -1.2127763841
  H         3.6575034712        4.4137670478       -1.3261282447
  O        -3.3149709582       -4.6709803664       -4.2066817627
  H        -2.3688076885       -4.8797629782       -4.3105738483
  H        -3.8349727117       -5.2843430187       -4.8203429332
  O         0.0923540760        6.1979529072        0.6897719088
  H         0.6562744241        5.3996391482        0.9472052045
  H         0.3948021955        6.1918744280       -0.2592676080
  O        -0.0772919802       -3.8700733352       -4.7898479281
  H         0.7421032354       -4.2521822708       -4.5004477890
  H        -0.1502561336       -2.9889425292       -4.4196803276
  O        -6.0206376225       -0.7072268407        1.6774466407
  H        -5.4590031995       -1.0952151287        0.9380841057
  H        -6.4283732091       -1.5528450119        1.9679461723
  O         3.0716429230        4.5416899212       -4.3808258844
  H         3.8142961285        4.3224002379       -3.7577473939
  H         2.1954681418        4.0749466612       -4.2245553514
  O         3.4636190165        0.2027507310       -2.1974828117
  H         2.9663837863        0.8597991382       -1.7017632894
  H         3.8639458318       -0.4268573887       -1.5611231688
  O        -1.7595582797        5.4390355270        6.5440419286
  H        -1.5803938076        4.4749410573        6.4420014006
  H        -2.4378121302        5.5804110712        5.8834474617
  O        -0.1016611046       -3.6223893728        1.0782282649
  H        -0.0362161634       -4.5903590704        1.0828169844
  H        -0.3135612222       -3.3508818547        0.1165164017
  O         7.1457259429        7.1526657362        6.2099883402
  H         6.3222095350        7.3698088813        6.6769959659
  H         6.9811504864        6.2949125636        5.8083690030
  O        -0.3568393210       -4.8332239976        5.0677733426
  H        -0.7836273643       -5.6951145544        5.1272622277
  H        -0.1702094046       -4.6594651738        5.9996872750
  O        -2.7754642429       -4.4664200023       -1.5741159546
  H        -2.4606482840       -5.3368512790       -1.2650372054
  H        -2.9994920205       -4.6042539096       -2.4962941812
