     192
 i =     4800, time =     7200.000, E =     -1100.0606895038
  O         6.0713802945       -3.2169979392        3.1510319763
  H         6.1024269974       -4.1871915586        3.0328172944
  H         6.6298701621       -2.9928948607        3.9251835683
  O        -5.3213606151        1.4600953673        5.2313056367
  H        -5.0953475397        0.9757877720        4.4074646822
  H        -4.5036314131        1.4678067719        5.7716165083
  O         6.3787904348        3.9147434111        6.1252530693
  H         5.4138380583        3.9541255625        6.2882762910
  H         6.4267914640        3.0150330667        5.6306320118
  O        -2.6266951866       -0.3678985665       -3.7826566651
  H        -2.1386166286        0.2770580269       -3.2738916487
  H        -2.0066815298       -1.0657411249       -3.6989020380
  O        -3.3936033907        5.0861092100        4.0681053693
  H        -4.2629391320        4.8337855458        3.7191372009
  H        -3.1181146471        5.7350114073        3.4214239255
  O         8.6345797593       -0.1660387905        3.6187890627
  H         8.4411858872       -0.9438147128        4.1676112059
  H         8.1361681001       -0.3373531087        2.8178302623
  O         4.5831610616       -5.3558532079        0.1987289220
  H         4.5570743905       -4.4728865028       -0.2424210113
  H         3.8607504371       -5.9018991032        0.0272034227
  O        -1.0904381960       -3.1134244741       -1.2767923273
  H        -1.8474788509       -3.7027053959       -1.1561556750
  H        -1.2759618949       -2.2831249322       -0.8052253069
  O         3.4792553598       -2.2998026472        3.2937752803
  H         4.3477940240       -2.7004670026        3.2959313160
  H         3.2320042021       -2.2053864840        2.3660422117
  O         3.0356133722        4.1750988838        6.1441652793
  H         2.8551072222        3.2708244964        5.9455879533
  H         2.7116980848        4.3664638293        7.0664027414
  O         5.2559448722       -4.1625778277       -3.4445237816
  H         4.9521587203       -3.6430895360       -2.5788632544
  H         4.4024027644       -4.2375189509       -3.8784627269
  O         2.5723648269       -2.2719201546        0.7293397633
  H         1.7326314413       -2.7665904003        0.4572898931
  H         3.2523160355       -2.6784699341        0.1985204719
  O         2.4747549010       -4.2481817822       -4.7648031245
  H         2.4347727989       -5.2633435023       -4.5355867786
  H         2.3599116505       -4.1066969911       -5.7549715715
  O         4.4767820381        4.6383044098       -2.8716898217
  H         4.6776368837        3.7546590822       -3.2324151249
  H         5.3459417233        4.8966944061       -2.5444238973
  O         3.2730835159       -0.1307189263        4.9258630445
  H         3.4076387219       -0.9115784121        4.3961024269
  H         3.3352091157        0.5455850206        4.2259385175
  O        -0.9365201085        3.1023369855        6.5930861289
  H        -0.4821037329        2.7688309576        5.8322200299
  H        -1.8221091733        2.6331632867        6.6415831858
  O        -1.1410889014       -3.4883468919        2.7307479122
  H        -0.5018759311       -3.5057299429        2.0154517636
  H        -0.7154637969       -3.9977259325        3.4521707344
  O        -2.1989088587        2.9424059320        2.4151225389
  H        -1.5468432855        2.4899586683        2.9832191865
  H        -2.8913716417        3.2645733015        3.0241994138
  O         1.4994401214       -0.4936460952       -4.5339575746
  H         1.9070927186       -0.1902247309       -5.3508327683
  H         2.0733248859       -0.2873939884       -3.7603700416
  O        -1.1306032505       -0.7967459319       -0.0976081564
  H        -1.3159177780       -0.7184310233        0.9051216962
  H        -0.1457024873       -0.7917828330       -0.1265403236
  O        -4.4612359521        2.6524571748       -2.9612388236
  H        -4.7554235413        3.3925934852       -2.3670831135
  H        -3.8662769208        2.0512352808       -2.4846672115
  O         5.8247593983        6.4880083037        2.6773898675
  H         5.1075778378        6.6386832631        2.0070396509
  H         5.2661295515        6.1168603084        3.4604434895
  O         5.6100121917       -0.7635292732       -3.5282056209
  H         5.6379803945       -0.8001741801       -4.4304165419
  H         6.3786026413       -1.2680938769       -3.1614097084
  O        -5.4730460870        4.8927731021       -1.9782828436
  H        -5.4489160015        5.4781294661       -1.1782906427
  H        -5.4818634391        5.4758309429       -2.7914121116
  O         5.4683073980        1.3688949654       -0.8067449929
  H         6.1916883133        1.8659006277       -0.4227282827
  H         5.4256410555        1.6544008141       -1.6975432927
  O         1.3659871516        0.2182726240        0.4409651933
  H         1.4925840284        0.9710545399       -0.1613303578
  H         1.9904971864       -0.6095283372        0.3271334498
  O        -4.9684989853       -5.8996506521        0.2408518323
  H        -4.2688220011       -5.7940070636        0.9359857947
  H        -5.8233907853       -5.4950772103        0.4227120423
  O        -4.6992364966        2.6037367677        0.1572013873
  H        -4.8356522125        3.1279153577        0.9399558978
  H        -3.8001672366        2.2186872274        0.1072719992
  O         5.5728140956       -0.3722721789       -6.1111948722
  H         6.2005894617        0.3271465476       -6.3301038035
  H         4.7394725083       -0.2210525444       -6.5879640222
  O         4.3788074730       -3.0355080981       -1.1703356223
  H         4.7888870338       -2.1562688836       -1.0751918002
  H         3.4983912174       -3.0828636596       -1.6885364643
  O         2.3417719807        2.4003839985       -1.6155120387
  H         3.0670146067        2.8581524824       -1.1381432730
  H         1.6534168232        3.0260996995       -1.9616263742
  O        -1.4583715112       -0.8592784095        2.5611042710
  H        -1.4424656578       -1.8137474373        2.7583475196
  H        -2.3907983315       -0.6348649362        2.8517877432
  O         2.2453281110       -8.0198916436        2.0725289667
  H         2.3528986782       -7.5666924048        1.2774113836
  H         2.7352754969       -7.5787194829        2.7548205998
  O         2.2035688488       -2.9274515092       -2.4296991939
  H         2.0045719018       -3.4021819158       -3.2839256671
  H         2.1937934007       -1.9416154235       -2.3729502330
  O        -5.5229499812        4.0264485615        2.3660643813
  H        -5.9984985015        3.3128874938        2.7898604231
  H        -6.0454987847        4.8665398761        2.3946417170
  O         2.2581788513       -4.1574874210       -7.5371511333
  H         1.2811101491       -4.3788272288       -7.7183382150
  H         2.4632834338       -3.3800404630       -8.1299298341
  O        -0.0836507330        3.2381678837       -3.0141957274
  H        -0.0705163155        3.0765087634       -3.9693713802
  H        -0.6670677236        3.9863950231       -2.8897321180
  O        -2.6872210480       -5.7899546890        1.6030085710
  H        -2.2751596945       -4.9305985212        1.8015073621
  H        -1.9895321593       -6.3358474252        1.1393905222
  O         3.5727987715        5.7954761337        3.9833947843
  H         3.3537787606        6.7031652962        4.2321370878
  H         3.2084492046        5.2746866659        4.7637951252
  O        -3.1759896137        1.8306763183       -5.3809480362
  H        -2.9136705809        0.9559057879       -5.1496038857
  H        -3.6230201925        2.2311710935       -4.6146460117
  O         2.6075715546        1.6145643406        2.6867760953
  H         2.3730146597        2.4863345755        2.2629920455
  H         2.3593354912        0.9822498496        1.9682563603
  O        -6.6411032492        1.4011435872        2.6690923946
  H        -7.5335950096        1.6033805728        2.4182680051
  H        -6.3995116129        0.4900600507        2.3573228052
  O        -0.2171525697        1.3661269986        3.8128994780
  H         0.7167243269        1.2761318264        3.6182006147
  H        -0.5526079847        0.4689059162        3.6167078782
  O        -1.6300400811        4.4620481071        0.3948084060
  H        -1.7967010769        3.9488911321        1.2216379843
  H        -2.1353599906        3.9579495024       -0.2387108918
  O        -0.5599179342       -2.0456494613       -3.6200973657
  H        -0.4496982085       -2.6965940853       -2.9117810800
  H         0.2481730106       -1.5919367328       -3.8668177765
  O        -7.0939899815        2.1276896832       -3.5152613037
  H        -6.1595420967        2.3405845127       -3.5811027099
  H        -7.2135010220        1.3004924721       -3.9984600830
  O         6.0370361918       -1.1204125310       -0.6318068125
  H         6.7273862611       -1.2240000867       -1.3011911944
  H         5.8116099335       -0.1694621399       -0.6827990849
  O        -1.7428729676        1.5579941679       -1.6100861631
  H        -1.0261488419        1.9518507962       -2.0857808094
  H        -1.3022239768        0.8253668357       -1.1378499840
  O         0.0613678408        5.8368334313       -1.1861246227
  H        -0.5130463248        6.0404297413       -1.9715729439
  H        -0.4149353968        5.2107390104       -0.6125059350
  O         7.3142450562       -2.1271987508        5.4034315048
  H         7.5240083377       -2.6336838646        6.1709715374
  H         6.6232559497       -1.5315090593        5.7987669216
  O        -1.6682018589       -6.5647467962       -3.5299345582
  H        -2.0089918373       -6.6126979076       -4.4560118098
  H        -2.3863342074       -5.9351286361       -3.2153480004
  O        -4.5117485988       -2.0132583366       -2.6314759242
  H        -4.5178652160       -2.6399562987       -3.3897806230
  H        -3.8485027875       -1.3693578351       -2.9741670169
  O         2.8453809968        5.3044645563       -0.6168613174
  H         1.9198959697        5.4558428968       -0.9748954881
  H         3.3239204140        5.0409334652       -1.4671169328
  O        -4.1244875564       -3.3209462633       -4.8772907329
  H        -3.1666417041       -3.4946964311       -4.8697362563
  H        -4.5246370825       -4.1258504894       -4.5383045252
  O         0.0194158164        4.8091680275        3.8617993624
  H        -0.7562087583        4.4416802863        3.4212128673
  H         0.7284638943        4.8483072191        3.2008352018
  O        -1.4253472015       -4.0616721481       -5.0828402163
  H        -1.0803502646       -4.8740436920       -4.6910638874
  H        -1.0844965979       -3.2810441528       -4.6279102767
  O        -5.5703213582       -0.9255502909        1.8341491192
  H        -5.6731568628       -1.1401410371        0.8646078316
  H        -5.6969529486       -1.7524931047        2.2971545554
  O         2.3520390500        5.4240618791       -4.0544985348
  H         3.2253391623        5.2499649402       -3.6349885070
  H         1.7170775418        5.0923561431       -3.3973380020
  O         3.1741779978       -0.4628496931       -2.5002822889
  H         3.1798034716        0.3689644548       -2.0613500802
  H         3.9788903454       -0.5748353338       -3.0773329811
  O        -2.0570203861        5.6725251144        6.3118881897
  H        -1.5833431141        4.8273969172        6.2416771345
  H        -2.7388326325        5.5268416334        5.5845627218
  O         0.5203845027       -4.1491817318        0.5564316583
  H         0.3399294177       -5.0698714342        0.3171097201
  H         0.0505813810       -3.8196693989       -0.2032443503
  O         7.1411606216        6.5974153397        8.0654449037
  H         6.2396683704        7.0453722545        8.2774610178
  H         6.9818342620        5.9281432147        7.3956284186
  O        -0.3271779392       -5.0225828347        4.8302180083
  H        -0.2658564446       -5.8145092387        4.3220235335
  H        -0.9802715458       -5.1460268977        5.5266486323
  O        -3.2904480938       -4.6997411769       -1.6287009060
  H        -3.9661754236       -5.1438480471       -1.0482092998
  H        -3.7368560481       -3.8035035937       -1.6777983153
