     192
 i =     6500, time =     9750.000, E =     -1100.0761955947
  O         6.0249003142       -3.5155600970        3.4086332063
  H         5.8308275261       -4.3915124561        3.0823593432
  H         6.6676971648       -3.5706377361        4.0927970904
  O        -5.0720270317        2.7770381376        5.9277335304
  H        -4.9880062953        2.1607445120        5.2183231407
  H        -5.0402126103        2.3401860278        6.7926306487
  O         6.7339473089        5.4560209887        5.5836413361
  H         5.8518821355        5.6391013533        5.2361596687
  H         6.8969749053        4.4880224007        5.6634385693
  O        -1.6623213389        0.2955505854       -4.1504513547
  H        -1.6394705410        0.4538955527       -3.1644431647
  H        -1.0094197256       -0.4348232293       -4.2702718454
  O        -3.6896754313        5.4748619405        3.7267535565
  H        -4.4157220593        5.3260230259        4.2825747871
  H        -3.9312349607        6.2843701265        3.2488236728
  O         7.1476224965       -0.5211557362        4.2333521812
  H         7.1674279975       -1.3349914538        4.7913896206
  H         6.7849727727       -0.8510732957        3.4023727995
  O         3.6477564110       -5.1417402306        0.0427994001
  H         2.9821792732       -4.4988519593        0.3086200503
  H         3.2411227722       -5.9650371666       -0.2855261912
  O        -0.9622317494       -2.4782568674       -0.7648450017
  H        -1.7715596339       -3.0099639135       -1.0313705168
  H        -1.3757949182       -1.6503911795       -0.4074645142
  O         3.6063414041       -2.4621937746        3.8681019696
  H         4.6129446892       -2.5404140629        3.7278771013
  H         3.2766671001       -2.1577270479        3.0062683901
  O         3.5656491355        2.8975441500        5.7443709848
  H         4.2632263275        2.2664384678        5.7662830852
  H         3.4733287669        3.1725170706        6.6759622084
  O         4.8298296875       -3.9103912201       -3.5883694778
  H         5.1065184125       -3.0666212985       -3.8050957057
  H         3.9471228238       -4.2535812412       -3.9619764017
  O         2.7383460848       -1.6945661914        1.2721760916
  H         1.9704826704       -2.2987247892        1.4224580737
  H         3.3716247426       -2.1479357144        0.7095302686
  O         2.3837146958       -5.4708975196       -4.7260347127
  H         2.6154776839       -6.4082046520       -4.9163474098
  H         2.3564453415       -5.1139152712       -5.6053915348
  O         5.0349301716        4.0494166317       -2.5707794252
  H         5.3266948071        3.1310402683       -2.3364130701
  H         5.8691201657        4.6792232795       -2.5025468336
  O         2.6893747083       -0.6946881734        5.9522050509
  H         3.0099242387       -1.2355775166        5.1806155351
  H         2.0279859460       -0.1357919011        5.5542560094
  O        -0.9803108913        2.1193787400        6.5306608516
  H        -0.9431306295        1.7031953205        5.6375811236
  H        -1.2409853860        1.4166751724        7.1215707436
  O        -1.5809032194       -3.4793844627        3.0615114042
  H        -0.7722995167       -3.4105515770        2.4818702146
  H        -1.2454643077       -4.1329138675        3.7125728047
  O        -2.7731780054        3.0875838151        2.2674961527
  H        -2.1870998969        2.5129125033        2.7660418811
  H        -2.8942294074        3.8817926955        2.7613996197
  O         2.4027962479       -1.6066386248       -3.9761136509
  H         2.7357905489       -1.2411062472       -4.7917616884
  H         2.7108304803       -0.8673316371       -3.3942828493
  O        -2.6453480753       -0.4384224323        0.1342086156
  H        -3.5533883295       -0.1604571057       -0.1248487352
  H        -2.6031571940       -0.5733653786        1.1239248432
  O        -3.2847993888        3.7019920390       -2.7738069994
  H        -3.9141044701        4.3303564704       -2.3654073706
  H        -3.1004168419        3.0455726474       -2.0912480000
  O         5.3296214415        6.4506298305        2.2134859074
  H         4.8386385367        6.7978307903        1.4368822704
  H         4.6694977360        6.2101211050        2.8718840849
  O         5.9813637866       -1.4690292286       -4.0857268113
  H         5.5580442435       -0.7401664842       -4.6170831230
  H         6.9428931056       -1.2318826723       -4.1268439134
  O        -5.2773195346        5.6089481087       -2.3876415722
  H        -5.3703398129        6.2736494016       -1.6706173652
  H        -5.3945452937        6.0696387493       -3.2151348911
  O         7.4549898184        0.7342381877        0.0764182436
  H         7.7147925505        1.5016723754        0.5072709068
  H         6.8767211349        1.0143071019       -0.6385092012
  O         2.3165756412        1.0428156712        1.4267484030
  H         1.7847884573        1.5681261858        0.8211461355
  H         2.2776609791        0.0800113225        1.1736010915
  O        -5.7854865245       -5.1919537909       -0.4744871576
  H        -5.3528478728       -4.8714038614        0.3379760907
  H        -6.7116421957       -5.3247198408       -0.2700590655
  O        -3.8429364182        3.7601791355       -0.0748570232
  H        -4.8030149070        3.5926768411       -0.0448526477
  H        -3.4080482520        3.4322317414        0.7479851259
  O         4.8728858867        0.4367320693       -5.7847812305
  H         5.4299173453        0.2395873922       -6.5404693672
  H         3.9925736861        0.1381985357       -5.9609305857
  O         4.1626387499       -2.3753201237       -0.7301510141
  H         5.0713904770       -2.5166744471       -1.0363388707
  H         3.6435246304       -3.1350535044       -0.9687001644
  O         1.2762315329        2.2093084424       -1.4489980779
  H         2.0148412592        2.7446908672       -1.1609769872
  H         1.2359187566        2.5890512306       -2.3576574595
  O        -2.7718103224       -0.8433982684        2.9659179828
  H        -2.5125286919       -1.7459579061        3.3200172640
  H        -3.6345767496       -0.5485151412        3.3579401425
  O         2.6531418948       -7.7379133729        1.6588845897
  H         3.1842686263       -7.6283545977        0.8484147959
  H         3.1674108867       -7.4653200909        2.3890475277
  O         1.8451096248       -3.7308342957       -1.7926488737
  H         2.1886465705       -3.1250671602       -2.4872487378
  H         1.1233346832       -3.2279375675       -1.3778041515
  O        -6.4962475039        3.5509103828        0.9339370381
  H        -6.9544895064        2.8403069393        1.5054891288
  H        -6.5151277238        4.3039905212        1.4960410570
  O         2.2161071082       -4.8028897581       -7.6481522515
  H         1.2051211118       -4.8647701658       -7.7217642549
  H         2.5881390220       -4.0097063724       -8.0505184262
  O         0.8247775886        3.1019983058       -4.1327711678
  H         0.2231387430        2.6126610223       -4.6957622369
  H         0.2227454495        3.7829456850       -3.8276127398
  O        -3.8122744601       -4.8310434776        1.6583048806
  H        -3.1068813439       -4.2534502509        2.0756805564
  H        -3.2031720915       -5.3333235397        1.1175457231
  O         4.0988234303        5.5569723041        4.4742687802
  H         3.3752774685        6.2312999420        4.5116160749
  H         3.7179854389        4.8132677527        4.9037556470
  O        -4.3691440679        1.7440533402       -4.2735664632
  H        -3.6098632634        1.0998658023       -4.4125273936
  H        -4.0476893928        2.5389856081       -3.8713648702
  O         1.6911582678        1.6254866195        4.0481066960
  H         2.2675422966        2.0409396629        4.7075473573
  H         2.1580929197        1.5995048210        3.1808636111
  O        -7.5318922930        1.5108842878        2.5621558613
  H        -8.3522819782        1.3181446969        2.0401556955
  H        -6.9448611688        0.7584260780        2.6843621842
  O        -1.0041662896        1.3597156733        3.8114804430
  H         0.0240074646        1.4081332150        3.7096596260
  H        -1.2089624800        0.5176377266        3.3978135205
  O        -2.6185625202        6.1457313370       -0.3970104836
  H        -1.7579927321        5.8845137618       -0.0130658085
  H        -3.1256156749        5.3183152333       -0.3148378853
  O        -0.1522060187       -2.0168842423       -3.8918738147
  H        -0.4510075176       -2.0089032048       -2.9398708353
  H         0.8840804138       -1.8710247134       -3.9384830473
  O        -6.2416427003        1.2827525620       -2.2800212769
  H        -5.6151774876        1.2233306335       -3.0710739937
  H        -7.0495140132        0.7620137834       -2.5110435586
  O         6.6955478782       -2.4734341810       -1.4878326481
  H         6.9771690164       -3.4088882851       -1.3926614224
  H         6.5753769793       -2.3619448572       -2.4362946493
  O        -1.4803196665        1.3495244105       -1.6435945955
  H        -0.6911632399        1.9141251998       -1.5870085550
  H        -1.6665347438        0.9069149102       -0.7632507786
  O         0.6128382775        6.2006383104       -2.0758465876
  H         0.7722192611        7.1685926660       -2.1204030716
  H        -0.0966721698        5.9607999220       -2.7176566735
  O         7.5619205352       -2.9744153852        5.7727001350
  H         8.3430149549       -3.5099361463        6.0159081140
  H         7.5405352452       -2.3268174188        6.4838472905
  O        -1.1915150231       -7.5012832021       -3.7675978893
  H        -1.4744509493       -7.2652429374       -4.6325620407
  H        -1.8658625858       -8.0171220454       -3.2897895034
  O        -3.7943454165       -1.7262309956       -3.8636883815
  H        -3.4580184299       -2.5808434852       -4.0352385197
  H        -3.0436964384       -1.1506490516       -4.1229317474
  O         2.8202127712        5.0515336387       -1.3212621732
  H         2.1097952463        5.2780090508       -1.9356177674
  H         3.6523983494        4.7689038728       -1.7548254606
  O        -2.9632504185       -4.3312697539       -4.3436320356
  H        -2.1697449163       -4.9209704325       -4.4413650190
  H        -3.8001498358       -4.8669429060       -4.3793219746
  O         0.3638814349        6.0896980379        0.6001545962
  H         0.9395195552        5.5175995174        1.0772123121
  H         0.4180317943        5.8437218684       -0.3287920701
  O        -0.1959855840       -4.6654082369       -4.9842814955
  H         0.6285110627       -5.0162061288       -4.5380682963
  H        -0.2029325291       -3.8025892907       -4.6536813082
  O        -6.3311196276       -1.2159767946        1.8082870608
  H        -5.8858569049       -0.7438320359        1.0538805786
  H        -5.8736368408       -2.0616277816        1.9300438723
  O         3.1711541424        4.3079331670       -4.5778881134
  H         3.6996457183        4.2978454834       -3.7635625605
  H         2.3047534658        3.9028791330       -4.2895855482
  O         3.3817855360       -0.0448734382       -1.9861779561
  H         2.8274707021        0.6389388210       -1.5275039368
  H         3.4230983145       -0.7286832833       -1.3276238935
  O        -1.8413136829        4.6174670857        5.7199521854
  H        -1.6339332254        3.7490540209        6.1467085632
  H        -2.7349061063        4.5441568408        5.4122087112
  O         0.6284634108       -3.5644079119        1.2303740132
  H         0.5193663992       -4.5506945024        1.0012949652
  H         0.0835924356       -3.1884027743        0.4886352465
  O         6.9493013084        7.1935422305        7.9514328786
  H         6.1288208326        7.6318466132        8.2031884044
  H         6.8265787741        6.7970816227        7.0935637086
  O        -0.6641585147       -5.3084303350        4.7177983119
  H        -1.0507158226       -6.1775811447        4.6266365984
  H        -0.4933982359       -5.1944632610        5.6736409247
  O        -2.9854247614       -3.9195340353       -1.4668085003
  H        -2.7114009593       -4.8333953588       -1.2010187131
  H        -2.8694678903       -3.9536510070       -2.4027066841
