6
Properties=species:S:1:pos:R:3 i=0 time=0.0 E=-34.4504806384 pbc="F F F"
O       -2.08650093       4.62626051       4.13270358
H       -2.56959598       3.82133744       4.34719609
H       -1.31735571       4.33838179       3.63103589
O       -3.79811754       6.37067809       2.39302720
H       -3.92565307       7.23414083       2.79588174
H       -3.24096842       5.87633601       3.01402621
