     192
 i =     4200, time =     6300.000, E =     -1100.0815516603
  O         5.7744347605       -3.3439856821        3.2542233567
  H         5.9395951124       -4.3230816703        3.3634437265
  H         6.4409739105       -2.9226129506        3.8103001033
  O        -5.1494241211        1.9605420120        4.8934139367
  H        -4.9418909634        1.4161631146        4.1038140783
  H        -4.4911619402        1.6482946620        5.5102558255
  O         6.8266338821        4.4970772497        5.8227730517
  H         6.4851916620        5.1701038871        5.2496000867
  H         6.6641826348        3.6874434029        5.3696169284
  O        -2.4289976991       -0.4944066970       -4.1764946338
  H        -1.8607755514       -0.2132921886       -3.4401715758
  H        -2.0394477393       -1.2940197123       -4.5440588847
  O        -3.4722027993        5.8934486558        5.4231364286
  H        -4.2506908645        5.3204336180        5.2859382114
  H        -3.4843670066        6.5010460553        4.6240733735
  O         8.0652114201       -0.3797034178        2.9248076976
  H         7.8691789467       -0.7127466429        3.8349201916
  H         7.2205947556       -0.3171209468        2.5292160405
  O         4.7544013037       -5.2016508494        0.6167810046
  H         4.3312392551       -4.4389964278        0.0948966412
  H         4.2164653600       -5.9692617839        0.3636132577
  O        -0.8428054561       -2.9775761480       -1.1929274769
  H        -1.7300794072       -3.4964780367       -1.2615475322
  H        -0.9786188415       -2.1497099995       -0.6702361964
  O         3.3101627697       -2.6875323572        3.8544303011
  H         4.2376772437       -2.8532811345        3.6145867610
  H         2.7334490629       -2.5175508242        3.0708518652
  O         2.3710133435        4.1912888187        5.5111241998
  H         1.6194504121        3.5457685168        5.3876963217
  H         2.8347528767        4.0781346113        6.3501631353
  O         4.3665352093       -5.4333985949       -3.0220636638
  H         4.2588246699       -4.5574327012       -2.5708667993
  H         3.4950626986       -5.5881308847       -3.4802013757
  O         2.2305906386       -2.5307338242        1.2670232118
  H         1.6263081542       -3.2689366509        1.1744751149
  H         3.1275521493       -2.8202585236        0.9464488804
  O         2.0039205392       -5.6855112382       -4.3831875962
  H         2.3085295279       -6.6421423330       -4.3805610785
  H         2.0815702379       -5.2837657423       -5.2831383031
  O         4.7771545528        4.1716456057       -2.3976443103
  H         5.5711527002        3.6300216129       -2.4314573029
  H         4.9609530059        5.0841193005       -2.4614961516
  O         3.1763992443       -0.3714847042        5.0493666152
  H         3.4004671223       -1.1763367198        4.6026918560
  H         2.7805180377        0.2602519480        4.4634101285
  O         0.2597888803        2.4728128488        6.2028286039
  H         0.9383795914        1.7934120478        6.4450550218
  H        -0.4242549110        1.8946547946        5.8671320796
  O        -1.6278796173       -4.0972725705        2.8971353322
  H        -1.0282579562       -4.1261507160        2.1058090181
  H        -1.1438624128       -4.3895443677        3.6860512081
  O        -2.2701575171        3.1463116081        3.3940204418
  H        -1.8729530506        2.2777722549        3.6305455092
  H        -2.7039176009        3.3088189607        4.2193021816
  O         1.7862516757        0.4319713710       -5.3518495116
  H         2.2191574886       -0.0948997734       -6.0732288477
  H         2.4114833212        0.3221746257       -4.6116743494
  O        -1.2919409161       -0.5132636763        0.5046044199
  H        -1.6475355786       -0.8172503035        1.3428046170
  H        -0.3145124745       -0.3680440575        0.6292096280
  O        -2.9027350085        3.0366386451       -2.8264526120
  H        -2.6161935534        3.7204354641       -2.1934540350
  H        -2.5738934222        2.1992940676       -2.5632585733
  O         5.7771942156        6.3785009304        3.1365497699
  H         5.4725299188        6.7859604528        2.3348950536
  H         4.9937475713        6.1335519064        3.6727011888
  O         5.8949666911        0.5748981986       -3.9806140209
  H         5.8117179857        0.4852125995       -4.9473470636
  H         6.1552008266       -0.2789473629       -3.7817342598
  O        -3.1364742459        5.8507926362       -2.5294297939
  H        -3.0910138841        6.6446423615       -1.9329700869
  H        -3.8356501532        6.1883706849       -3.2009132123
  O         4.8819633388        1.3233679081       -0.8405821429
  H         4.9990505694        1.1367911075        0.0942678153
  H         5.5745744133        1.9496509217       -1.1497751682
  O         1.3959359706        0.1544827604        1.0248110386
  H         1.6411913755        0.5854721281        0.1736007466
  H         1.8751504199       -0.7238509372        0.9215094720
  O        -4.8577195494       -4.2858635248        0.6579921782
  H        -4.4822704126       -4.6115223439        1.5064643366
  H        -5.7677569884       -4.5413461195        0.7817349221
  O        -3.9222556501        4.5846467392        1.2745957593
  H        -4.7580435921        4.0657257537        1.1540615514
  H        -3.4052904058        3.9890390498        1.7989314563
  O         5.5158528532        0.2261143210       -6.5874544876
  H         5.8578436612        0.9870728053       -6.9733584736
  H         4.5399629036        0.0095105639       -6.9184720803
  O         3.8581720886       -3.1792781582       -1.2884352110
  H         4.4340422960       -2.3932405894       -1.3159593253
  H         3.1006145226       -2.8450545093       -1.8705678213
  O         2.0087691896        1.5308615942       -1.3281080849
  H         2.9515092859        1.7015062220       -1.0282812015
  H         1.7577545475        2.2863163402       -1.9084391749
  O        -1.8780298596       -1.4327813139        3.0804842474
  H        -1.8624442704       -2.4344759402        3.1012188033
  H        -2.7737562094       -1.0968909700        2.8451196568
  O         2.2776922280       -8.4509524856        2.2685784551
  H         2.4952916474       -8.2643558367        1.3383441435
  H         2.6385190343       -7.7013632631        2.7669834490
  O         1.5522032992       -3.2993394811       -2.6116979336
  H         0.6684668565       -3.4074784229       -2.0906262768
  H         1.7304519847       -4.0995037486       -3.1343887805
  O        -6.6159972509        3.9859245886        1.1842231634
  H        -6.8560871195        3.1062677811        1.5420796476
  H        -6.8899787639        4.5930237817        1.8797523440
  O         2.2133394247       -4.4390450370       -6.8733953250
  H         1.2966800127       -4.3673005465       -7.1650984228
  H         2.7524347657       -3.7732013598       -7.3859322220
  O         0.4578047839        2.7830890692       -3.1665691194
  H         0.0593249885        2.8253221256       -4.0829441589
  H         0.3802845169        3.6481037985       -2.7193399326
  O        -3.8208377462       -5.5857537936        3.0110910823
  H        -2.9228926526       -5.2033687707        2.7796096167
  H        -4.0132276761       -6.3228589369        2.3693356178
  O         3.1341261103        6.0637193010        3.7921905309
  H         2.7114131636        6.7615378391        4.2577936923
  H         2.8896465182        5.3752998310        4.4761361796
  O        -3.1479214904        1.7569387424       -5.5946308087
  H        -2.8803303811        0.9521960860       -5.1225942201
  H        -3.0424655679        2.4607997690       -4.9406214713
  O         1.9146953508        1.3706373896        3.4370767174
  H         2.0068194358        2.3245306869        3.1940960125
  H         1.6580274355        1.0316229277        2.5718373147
  O        -7.1540023598        0.7017196370        1.8923157210
  H        -7.7976934927        0.9516717801        2.6105464577
  H        -7.3206016802       -0.2944745465        1.7130663212
  O        -0.7301981919        0.7053753312        4.3006731113
  H         0.2305975288        0.7602813821        4.1389858625
  H        -1.1313011874       -0.1760057447        4.0518928981
  O        -1.4704488879        5.5525343211        0.0216056048
  H        -1.0422776722        5.3717609581        0.8822515265
  H        -2.3553790499        5.1593279697        0.1822812278
  O         0.2415675713       -1.6271070048       -4.2082363645
  H         0.8706884924       -2.1819423691       -3.6613444067
  H         0.7866333177       -0.9407224871       -4.6958129576
  O        -5.6920562142        2.4080718004       -2.5093845084
  H        -4.8109642440        2.7181188039       -2.7753345847
  H        -5.8065539327        1.7163897122       -3.2128864015
  O         5.8605374718       -1.2396528193       -1.3283716641
  H         6.7547873742       -1.1560532862       -1.6235560536
  H         5.5577840985       -0.3063568370       -1.4380480897
  O        -1.2527637891        0.6605611351       -2.0392956842
  H        -0.4389873324        1.1331855686       -2.2716994030
  H        -1.2012201895        0.2928208190       -1.1118221276
  O         0.4827942035        5.0269096320       -1.7548298291
  H         0.3266366467        5.7065738240       -2.4267249431
  H        -0.2173307659        5.0878065120       -1.1206876276
  O         7.1515785343       -1.8693296011        5.0331962308
  H         7.4749563543       -2.4218333292        5.7536030643
  H         6.4737519814       -1.3411607576        5.4919067301
  O        -0.9393404342       -5.5588780174       -3.9133361804
  H        -0.6153573055       -6.2397746500       -4.5416969786
  H        -1.8034758969       -5.9447366793       -3.6468700812
  O        -4.6496089230       -1.7457518048       -3.3288531825
  H        -4.6236911160       -2.5377580817       -3.9171132682
  H        -3.9390221316       -1.0919924387       -3.6798991336
  O         3.1842874812        4.8088160356       -0.2438107712
  H         2.5075451859        4.9647490474       -0.9501883200
  H         3.9145806790        4.4258521899       -0.7414890232
  O        -4.2794154680       -3.5117574848       -5.4671368639
  H        -3.3035517559       -3.4670957910       -5.5487233868
  H        -4.4768310820       -4.4339880977       -5.1716391177
  O        -0.4733201365        5.1461467295        2.5934748661
  H        -1.0075647830        4.4596198177        2.9720664240
  H         0.4048478923        4.6720402731        2.6143654772
  O        -1.5465692068       -3.3425744830       -5.2626816702
  H        -1.3238832803       -4.1385182084       -4.6711704537
  H        -0.9085510821       -2.6159128362       -5.0775631665
  O        -7.4139615878       -1.7644153912        1.2519921172
  H        -6.8291326775       -1.5094338338        0.5147889974
  H        -6.9197244214       -2.3968650025        1.8375143625
  O         2.9447949273        4.1999108629       -4.2204565011
  H         3.6466316903        4.0562498650       -3.5076533200
  H         2.2974377127        3.4960549456       -4.0096328469
  O         3.3664173651       -0.3548208933       -3.1644735090
  H         2.9965943172        0.0866575703       -2.3684271429
  H         4.2062720437        0.1380215756       -3.2638854144
  O        -0.8606295734        5.2126329425        6.3090969255
  H        -0.5389725824        4.3045944464        6.2505800207
  H        -1.8342752056        5.2764780780        6.0720734306
  O         0.3049874368       -4.1954308326        0.7899013147
  H         0.3440882716       -5.0939674693        0.4230238413
  H        -0.1642697915       -3.6987459982        0.0546980377
  O         6.7423860999        6.3692945894        8.0883175126
  H         5.9811376338        6.8499473173        8.5612574220
  H         6.2427555655        5.6752461204        7.6186214745
  O        -0.5081880927       -4.8830452479        5.0436317353
  H        -0.3351723196       -5.8347035591        5.3387576142
  H        -0.8256889318       -4.3712225468        5.8941025114
  O        -3.2641806060       -3.8847244832       -1.5135891826
  H        -3.9518875892       -4.0513988946       -0.8203208685
  H        -3.6572443172       -3.4122494416       -2.2274442306
