6
Properties=species:S:1:pos:R:3 i=0 time=0.0 E=-34.4504806384 pbc="F F F"
O      -1.32217090      -4.70790563       4.35000000 
H      -0.70823182      -5.08309600       3.71000000 
H      -1.24007235      -3.75367671       4.25600000 
O      -4.11742494      -5.52914117       3.63500000 
H      -4.53305291      -5.99655789       4.36500000 
H      -3.22745233      -5.30323464       3.94700000 
