     192
 i =     2300, time =     3450.000, E =     -1100.0884139062
  O         5.1932517945       -4.6321165272        3.8045324516
  H         6.1800457642       -4.7035794151        3.6781771803
  H         4.9440823501       -4.4685423192        4.7290177616
  O        -3.2361167158        2.7519037443        4.2801987870
  H        -3.6226950556        1.9725980861        3.7865000701
  H        -2.6579725084        2.3526926663        4.9936429571
  O         6.3638554253        3.1013956394        6.1332817427
  H         5.4008280648        3.2966397971        5.9576470446
  H         6.6743985997        3.2821035773        5.2325827979
  O        -2.5810965242       -0.7641158329       -2.6864856516
  H        -2.1033877135       -0.6345351679       -1.8266684788
  H        -1.9079632041       -1.0656595184       -3.3259821876
  O        -3.9897957722        5.5103490725        5.5307574175
  H        -4.6155090801        4.9386367638        5.1792761514
  H        -3.9649116170        6.2472379826        4.9190045402
  O         8.3592160790        0.2823882743        3.5489176930
  H         8.4229234493       -0.3552377980        4.2840711382
  H         7.4899305747        0.0875467130        3.2287085119
  O         4.3920606278       -5.5143874970       -0.4122079394
  H         3.9462344451       -4.8259116217        0.0847675029
  H         4.4844171674       -5.1924835405       -1.3477196971
  O        -0.6901917832       -3.3391340915       -1.0030194989
  H        -1.5735524266       -3.7500878630       -0.9070231860
  H        -0.8374056004       -2.4018964714       -0.8528557269
  O         3.9197808635       -2.3155122166        3.0891146598
  H         4.2989778180       -3.1795746375        3.2708980156
  H         3.6065252268       -2.4281959863        2.2305539076
  O         3.8212393926        3.8146177875        5.5589207061
  H         3.3193914428        3.0811269301        5.2232610480
  H         3.3849115001        3.9700927278        6.4223694075
  O         5.2191953801       -4.2960247787       -2.6665604568
  H         4.7902984757       -4.5520925987       -3.5244825082
  H         5.6052341328       -3.4506933560       -2.6389495734
  O         3.3765483743       -2.9857740148        0.4748440013
  H         2.4542996108       -3.2581653867        0.6791067114
  H         3.3281681805       -2.7212592026       -0.4897934321
  O         1.5523638974       -5.7205954782       -4.7874474233
  H         1.6725676454       -6.7033377717       -4.6844572400
  H         1.1115605549       -5.6763576222       -5.6871413596
  O         4.3116452460        5.0592055304       -2.9493535574
  H         4.5819947729        4.5601468875       -2.1743487792
  H         5.1431074207        5.2977781137       -3.3640310264
  O         1.8434129175       -0.8056406835        4.4714385466
  H         2.6274189602       -1.3017716813        4.1632685933
  H         2.0311079578        0.1243712595        4.1973670981
  O        -1.5669099634        2.1213522168        6.4423492558
  H        -0.7814386030        1.3991519951        6.4483101348
  H        -2.2517030069        1.8359057517        7.0873975197
  O        -0.3516211691       -1.9532860495        3.2641778040
  H        -0.0458578082       -2.6292403260        2.6893747431
  H         0.3448418616       -1.8056038076        3.9115230728
  O        -2.0713628213        4.2630164651        2.5008091559
  H        -1.3799065561        3.6448340049        2.2026132560
  H        -2.5445147013        3.8256476522        3.2372444508
  O         0.4455881151        0.2337771557       -5.7835000539
  H         0.9353311965       -0.2242427192       -6.5038890091
  H         1.1051466620        0.6450296099       -5.2017157313
  O        -0.8833571845       -0.7070139995       -0.3620480356
  H        -1.2172506123       -0.4114221088        0.4640043918
  H        -0.1473075432       -0.0798855364       -0.5796186417
  O        -4.2573233352        3.1956519367       -2.2668248040
  H        -4.1327586167        4.0611689240       -2.6250406600
  H        -3.5908208000        2.9929664604       -1.6307524765
  O         5.8773690351        3.3845582992        1.6958168612
  H         5.6513859474        3.3272578057        0.7667525729
  H         5.2909896904        3.9342509113        2.2319231967
  O         4.9589433483        0.9736456526       -3.4057288884
  H         5.4843588625        0.8591429866       -4.1861047841
  H         5.0381814345        0.1286242132       -2.9162184550
  O        -4.3490505495        5.7379758467       -2.7835334670
  H        -4.6733676216        6.0714700549       -1.8964462997
  H        -4.9939377288        6.0449552580       -3.4472076875
  O         5.4148129514        0.1835537697       -0.0219210944
  H         5.4864415328       -0.0871547414        0.9449129666
  H         6.2431985277        0.6623358380       -0.1111569780
  O         1.5089198621        0.3766236403       -1.3563890594
  H         1.9463629903        1.0074707104       -0.7286866177
  H         2.0720770295       -0.4073979467       -1.3732993097
  O        -5.2198117044       -5.9633826899       -0.4862223262
  H        -4.9323049841       -6.5747518801        0.2219135836
  H        -6.1782577355       -5.7772326700       -0.3634005143
  O        -4.4274440915        5.2536650322        1.6865927566
  H        -5.2494914280        4.6905942976        1.8416578652
  H        -3.6675308908        4.7371012382        2.0166449996
  O         6.8935283084        0.4811299948       -5.4008248723
  H         7.7427623164        0.7922744479       -5.0071145205
  H         6.5873910262        1.3812413570       -5.7066296728
  O         2.6769913204       -2.0571066857       -2.0176904666
  H         3.6185630300       -2.0696836841       -2.2673615229
  H         2.1452290407       -2.6775133061       -2.5774209955
  O         2.8616164186        2.1929336004        0.1871493753
  H         3.6992939779        1.7828067425        0.0832994810
  H         2.8752526408        3.0785145578       -0.2849766867
  O        -1.3822451342        0.1964995171        2.2628572473
  H        -0.9840643908       -0.5930488907        2.7054457772
  H        -2.3209844766        0.1739367702        2.5311811454
  O         2.0711889996       -8.1548214016        2.5524455605
  H         2.1881773166       -7.8905241304        1.5872749925
  H         2.9167259934       -7.8789065437        2.9931201131
  O         0.8431994948       -3.4379073942       -3.2490255402
  H         0.3152829336       -3.6299097078       -2.4523820978
  H         0.9096085796       -4.3108491620       -3.6753970115
  O        -4.4720329535        1.0949841613        0.8622694335
  H        -3.7612767456        1.2088877043        0.2422007974
  H        -4.5886953246        1.8563242851        1.3651565365
  O         4.1677177819       -4.8465514869       -5.2381886237
  H         3.1816511692       -5.1111928502       -5.1579534352
  H         4.1906795234       -3.9099550515       -5.4879469302
  O        -0.6477747071        3.2165545120       -2.8631793188
  H        -0.8266992976        2.6075050610       -3.6181194880
  H        -0.7529572876        4.0948866735       -3.2497455346
  O        -4.7523254517       -4.7951050227        3.1161856979
  H        -4.4331739651       -4.0398690074        2.6311308401
  H        -4.6114316183       -5.5716920150        2.5231731294
  O         4.8854061491        5.0978265211        3.3409379748
  H         4.7420197775        6.0672213312        3.3329413007
  H         4.4841881033        4.7855471389        4.1553958372
  O        -3.2235950362        1.4379906706       -4.0888718087
  H        -2.9900129432        0.6983506929       -3.5709646800
  H        -3.5174146162        2.0996970460       -3.4625247135
  O         3.2731413121        1.7033919452        3.4298858227
  H         2.8626460716        2.4601342904        2.9698453089
  H         4.1181897329        1.7858752841        3.0034908047
  O        -6.4799755860       -0.7176535910        2.6551649293
  H        -7.3039343076       -1.2452222778        3.0156501641
  H        -5.8268289514       -1.3765450248        2.2725282721
  O        -0.3750749883        2.5358538624        1.3539060418
  H         0.5656021459        2.3943170011        1.0939990779
  H        -0.6065056961        1.6831057810        1.8126689073
  O        -1.4933376412        6.1499570564        0.3864214277
  H        -1.9127847410        5.4203348228        0.8086562654
  H        -2.2506688216        6.7760869648        0.2224550173
  O        -0.8122168351       -1.7550441420       -4.3556556696
  H        -0.1462116797       -2.3606975893       -3.8609862038
  H        -0.4414818967       -1.0691883207       -4.8884768724
  O        -6.8955875855        3.1062276626       -1.1177879082
  H        -6.0036876075        3.2067784242       -1.4094472420
  H        -7.1229620117        2.3997395716       -1.7014253141
  O         5.5354702680       -1.2376030479       -2.1633841119
  H         6.4266179468       -1.6049489249       -2.2517194147
  H         5.5039944482       -0.9228603955       -1.1762117706
  O        -2.2504112721        2.2564334203       -0.6257047190
  H        -1.6160483364        2.3037023229       -1.3798038727
  H        -1.6128915438        2.4180218098        0.0983336897
  O         0.5289535103        6.0803399342       -2.1747194436
  H        -0.0992710427        6.1482105651       -2.9176847441
  H        -0.0171730499        6.2660209043       -1.3930840268
  O         5.7769455690       -2.6011008066        6.0162207671
  H         6.5199342852       -3.1126259200        6.3413885482
  H         6.1759854045       -1.6904845578        6.0168263968
  O        -1.4686138731       -6.0876746338       -4.0012328113
  H        -1.5641685780       -6.7575948666       -4.7196321416
  H        -2.1735138281       -6.0963772111       -3.3287063271
  O        -4.6113368749       -2.5419506658       -2.7181332841
  H        -4.7279096934       -3.0002477784       -3.5977884604
  H        -3.9218258526       -1.8286354302       -2.7696599702
  O         2.5373595202        4.8161956489       -0.5149723315
  H         1.8385124044        5.2097071758       -1.1248254906
  H         3.2418730895        5.4731151908       -0.5412641425
  O        -4.5217625652       -4.0046393764       -5.3119394305
  H        -3.5271289131       -3.9059510899       -5.4874815537
  H        -4.7177990108       -4.9532430314       -5.4911572894
  O         0.4226090676        6.3666535329        2.7443829495
  H        -0.5611287169        6.3822848158        2.6966741754
  H         0.7382894304        5.4558210130        2.8496228583
  O        -1.8314973772       -3.9171407568       -5.5952877486
  H        -1.6733058879       -4.5923675272       -4.9177565854
  H        -1.5233068088       -2.9934486666       -5.3527559333
  O        -3.7546568255       -2.4541075264        1.9708176482
  H        -2.8815731154       -2.5635402294        2.3363469787
  H        -3.7140448567       -2.6498979179        1.0179714414
  O         2.5135839469        4.0471462698       -4.5118854804
  H         3.2287051782        4.4635778107       -3.9555257828
  H         2.3782255642        3.1757501973       -4.1185484207
  O         2.2710655142        1.2453447519       -4.0643356945
  H         1.8677759645        0.7893006575       -3.3116534623
  H         3.1835549717        1.0405254898       -4.0616963307
  O        -1.4970281466        4.7666631805        6.4199122224
  H        -1.4305710589        3.8346824301        6.2745772792
  H        -2.2856516947        5.1446375429        5.9274870486
  O         0.8120260584       -3.6877277774        1.4694116214
  H         0.7011343083       -4.4967392824        2.0110099690
  H         0.4273259974       -3.9903743948        0.6492389829
  O         6.1745234074        5.7240756134        7.4747739385
  H         5.4476068994        6.2692172855        7.0466732908
  H         6.2730251928        4.8633186512        7.0474283777
  O         0.2016977564       -5.0940200105        5.5222873775
  H         0.1011907145       -5.5546191475        4.7047434658
  H        -0.4986104232       -4.4107252002        5.5799290591
  O        -3.6704660219       -3.6594845096       -0.5888069266
  H        -4.1659573903       -4.4792605876       -0.3608073973
  H        -4.0628586233       -3.2940773895       -1.4397860021
