       6
 i =      400, time =       80.000, E =       -34.4460109694
  O         2.7089053086        4.3260001776        3.2493765016
  H         2.2080748535        5.0805419113        3.5530650239
  H         2.8193950403        4.3814750224        2.2652562002
  O         5.9018102817        4.3129468649        4.9834419552
  H         5.8033594850        3.3463357395        5.0874084694
  H         5.2129505508        4.5018801629        4.3322811194