       6
 i =       25, time =        5.000, E =       -34.4481257626
  O         2.8463901743        4.3286422157        3.4355473212
  H         1.9982760439        4.4533768239        3.8868024990
  H         2.6044560825        3.6856392022        2.7609683380
  O         5.9194913406        4.3316996607        4.7449435643
  H         6.1312395923        3.4956642550        5.2381286192
  H         4.9423791852        4.2848297243        4.5295759184