     192
 i =     3100, time =     4650.000, E =     -1100.0563025686
  O         5.8499947308       -3.8244379279        4.1019328740
  H         6.5403267022       -4.5222828165        4.0183287342
  H         6.2967787340       -3.1485674519        4.6461464025
  O        -3.0006723248        1.7009545011        5.4460550868
  H        -3.4011115712        1.0635371763        4.7536312207
  H        -3.1193690767        1.2472447933        6.2805079711
  O         7.6818091689        3.7650502859        5.0114210624
  H         7.2337945188        3.4375292893        4.1996178940
  H         8.2464447011        3.0578205703        5.3368313121
  O        -2.1424664328        0.0514553473       -2.5688133006
  H        -1.9024184345        0.3670865332       -1.7071993193
  H        -1.3626452600       -0.5204985491       -2.7750362522
  O        -3.9162967963        6.7745614783        6.2754732662
  H        -4.7550976084        6.1872217286        6.4154502631
  H        -3.9711367357        6.8846338132        5.2784373580
  O         8.1608000806        0.5176569532        3.0358029382
  H         7.2663528274        0.2098887984        3.1483675936
  H         8.0776064629        0.7199471935        2.0136928562
  O         3.8556764570       -5.6298114036        0.8391867481
  H         3.6152391176       -4.7276094748        1.0930795201
  H         3.1073416901       -5.9234767570        0.3072538123
  O        -0.9292304396       -3.2499651704       -1.5177744639
  H        -1.6884059695       -3.8074457852       -1.2918471905
  H        -1.0556416868       -2.4246144408       -0.9889148096
  O         3.7068354108       -2.0641989462        3.7954587524
  H         4.5134024889       -2.6341652482        3.8054075385
  H         3.0642534847       -2.5534497956        3.1856308458
  O         3.9101108779        2.7897261312        5.3776653319
  H         3.3054465440        2.0563972855        5.3041390515
  H         3.5606186132        3.3097467621        6.1286226550
  O         5.5572222936       -3.7887380600       -3.3044041649
  H         5.8299214840       -3.6099475632       -4.1719884613
  H         5.4405525700       -2.9837600706       -2.7989447002
  O         2.4837356337       -3.2734315464        1.7815757998
  H         1.6066605163       -3.7093959325        1.6353941511
  H         2.6453375919       -2.9120928145        0.8320138431
  O         1.8360910326       -5.4827911999       -5.0477052527
  H         1.9956833931       -6.4406663382       -4.9644878367
  H         1.2237171798       -5.2256687969       -5.8180678890
  O         4.4534294151        5.8233916527       -2.5232169553
  H         5.1453575961        5.4131597801       -2.0361769462
  H         4.7265221209        6.7681099986       -2.6082778691
  O         2.3034545775        0.3793527021        4.8109598552
  H         2.8823814364       -0.3654570446        4.6856413347
  H         1.9788459220        0.5555098558        3.8808941582
  O        -1.3073546472        2.9576399713        7.6752260765
  H        -0.8166669464        2.1753694543        7.3327456295
  H        -2.2173105276        2.4833952850        7.7012130800
  O        -1.4722442013       -3.9466550013        3.1232954077
  H        -0.9626740499       -4.1032887745        2.2885231067
  H        -0.8349757256       -4.1118599639        3.8278971060
  O        -1.6875177950        3.8334511214        3.2481948313
  H        -1.2401260649        2.9692461447        3.1123924543
  H        -1.7882634205        3.9934930641        4.1927410229
  O         0.6313490643        1.0550703054       -5.6206809175
  H         1.0217159449        0.7992174473       -6.5169310234
  H         1.2968035684        1.4374378242       -5.0163416542
  O        -1.2793018492       -1.1016216572       -0.0775860189
  H        -1.6758078274       -1.0954138645        0.8174791127
  H        -0.4248363524       -0.6285518172        0.0227159910
  O        -3.4389736881        3.1221888758       -2.0011128649
  H        -3.2080534527        4.0326834949       -2.3151367074
  H        -2.9281458417        2.8715547766       -1.2144314627
  O         6.2827697139        3.8784938254        0.9394533372
  H         5.9740431519        3.9217336206       -0.0012010018
  H         5.5106246359        3.7814671625        1.4963443358
  O         5.2713040944        1.2372159445       -3.4338295372
  H         5.4519114860        1.1037500505       -4.3702379496
  H         5.3110534078        0.3400895221       -3.0809976807
  O        -4.0901090419        5.8516866874       -3.4363353349
  H        -4.1947161155        6.4391679792       -2.6756002965
  H        -4.9921764733        5.8586046371       -3.8417527877
  O         5.0389965908        0.4531585578       -0.0714603362
  H         4.7513090249        0.1637269864        0.8248211432
  H         5.9863386156        0.7763684247        0.0153576593
  O         1.4437438778       -0.0701778639       -0.1342025413
  H         1.9350206993        0.6988758573       -0.4745110369
  H         1.8921510274       -0.8277385132       -0.4957438814
  O        -6.0189478478       -5.8298597987        0.1797018063
  H        -5.8744489984       -6.7487364237        0.5181976758
  H        -6.9020587386       -5.6273242620        0.4128091270
  O        -3.5133442628        4.9500354462        1.7121315672
  H        -4.2881818827        4.3747047151        1.7215316264
  H        -2.9584703141        4.3824598473        2.3039883152
  O         6.0288588851        0.8534963070       -6.1582324999
  H         6.8139399610        0.9679968331       -5.5546557362
  H         5.7265025604        1.6940292944       -6.6310210982
  O         2.5273717154       -2.4991160495       -1.0735519143
  H         3.2692066261       -2.3957377406       -1.5652025102
  H         1.9107017189       -2.9454440598       -1.6554389470
  O         3.0400894646        2.0304223836       -0.7611086407
  H         3.9136144667        1.7137529869       -0.4868511440
  H         2.8894755311        2.9347446071       -0.8555443283
  O        -2.3280416666       -1.1797396267        2.4881211716
  H        -2.2627481407       -2.0590750315        2.8543614597
  H        -3.1095171849       -0.7380898832        3.0225324770
  O         2.4909336615       -8.5300132750        1.7168180687
  H         2.5377134802       -8.0618754282        0.8446951362
  H         3.2225005157       -8.2533076781        2.2806358408
  O         1.2323702821       -3.3178310663       -3.2441683887
  H         0.3855438999       -3.4468757978       -2.8496309960
  H         1.4294125943       -4.0964581843       -3.8083619932
  O        -5.0211908784        1.3365875685        0.2850083099
  H        -4.2705392611        1.3890936720       -0.3131700229
  H        -5.2539283361        2.2164161694        0.5363742668
  O         4.5217421928       -5.5266985814       -6.6055777935
  H         3.6474832729       -5.1503138733       -6.4749465087
  H         4.8927394594       -4.7656983506       -7.1233580700
  O        -0.0174276355        2.6692405843       -2.1123941960
  H        -0.8134574612        2.4944157255       -2.6796677906
  H         0.1106545496        3.5925613215       -1.9415361336
  O        -3.9642012233       -5.3063263310        3.5581035346
  H        -3.0486944147       -4.9739743375        3.3891062892
  H        -4.1381809312       -5.9973381043        2.8946258307
  O         4.8529898214        4.3778322046        3.5918255965
  H         4.5497207163        5.2853642551        3.8474440847
  H         4.4952093001        3.8031672692        4.2998652984
  O        -3.5962778657        1.3500584831       -4.2811547749
  H        -3.0012918928        0.8345574659       -3.7063637071
  H        -3.9311605474        1.9261248120       -3.5704236991
  O         1.8480331513        1.2697318904        2.2659930224
  H         1.9418003896        2.2606296454        2.2463578178
  H         1.9720351850        1.0155268141        1.3606020529
  O        -7.4506587985       -0.2571453570        2.3778707325
  H        -8.0184142714       -0.8007351911        2.9458867879
  H        -6.7940839079       -0.8499418296        1.9583891516
  O        -0.8156068613        1.0553607703        2.3172360826
  H         0.1422419257        1.0047886816        2.3573627324
  H        -1.2817752873        0.2076028988        2.3988359148
  O        -2.5344204299        5.6011315009       -0.8930431700
  H        -2.9494429558        5.4779388635       -0.0173478026
  H        -2.8200034937        6.4615692404       -1.1100652783
  O         0.2138906747       -0.8616816622       -3.7662497310
  H         1.0326745482       -1.3665941418       -3.5197376200
  H         0.4019031367       -0.1890817301       -4.4561995969
  O        -6.3895782352        3.5199579857       -1.7046648647
  H        -5.4082153928        3.5158771193       -1.7875724586
  H        -6.6597248639        2.7202736196       -2.1236258887
  O         5.5101342170       -1.3531101354       -2.0758733716
  H         6.4785912650       -1.5387871747       -2.0973999628
  H         5.3385387373       -0.7742463962       -1.2366363419
  O        -1.7647601867        1.9616765955       -0.1107005384
  H        -0.9396181956        2.0137034644       -0.6356864236
  H        -1.4261416927        1.8459176256        0.8193865082
  O        -0.0794153461        5.4229998168       -1.8281365363
  H        -0.3647934150        5.8971713901       -2.6574608254
  H        -0.8950413588        5.4269186785       -1.3683144424
  O         6.7820649530       -2.0090368075        5.6420053381
  H         7.5677049726       -2.3008061149        6.2203559154
  H         6.5549261879       -1.0881117334        5.9003329264
  O        -1.3718747283       -5.6988621412       -3.7899588346
  H        -1.2120750303       -6.2111037548       -4.6444716032
  H        -2.3190672909       -5.7350972881       -3.7741032470
  O        -4.3841619179       -1.9821078334       -2.7311666484
  H        -4.1935137704       -2.4190605415       -3.6060943611
  H        -3.7121247684       -1.3022856918       -2.6419398473
  O         2.5439800675        4.8671479585       -0.8693425804
  H         1.6697842417        5.2654019369       -1.2217267592
  H         3.2698082560        5.1516528631       -1.4524297874
  O        -3.8729492574       -3.0339413848       -5.3219596088
  H        -2.9267163956       -2.9806580161       -5.2823408934
  H        -4.0028612839       -3.9559385097       -5.5901372841
  O         0.2243686912        5.5474516644        2.0119629936
  H        -0.4508629203        5.0688865221        2.5170449814
  H         0.9812699262        4.9198253618        1.9071072989
  O        -1.1664617578       -2.9456872632       -5.1417293920
  H        -1.0929206754       -3.6395711093       -4.4799883226
  H        -0.6598062219       -2.1559303075       -4.7221392764
  O        -5.8243040973       -2.7212256817        1.7736202520
  H        -5.1017333461       -3.3452154469        1.5026980281
  H        -6.1524063946       -3.1680500590        2.5694008288
  O         3.0390518006        4.3017286679       -4.8153570469
  H         3.8242835524        4.5615163739       -4.3214303353
  H         2.6884832483        3.5525328314       -4.3082361008
  O         2.2202604062        1.8851567852       -3.5343853317
  H         1.6073542414        1.9166535512       -2.7583999065
  H         3.0879601147        1.5740865751       -3.1522755309
  O        -1.5875721598        5.2272659976        5.7636897181
  H        -1.5701167569        4.3811120293        6.2523293185
  H        -2.5119875652        5.4719333142        5.9824880061
  O         0.0068266604       -4.4952869109        0.8693996818
  H        -0.0168766274       -5.4593360411        0.9416656913
  H        -0.2749199339       -4.1861610479        0.0236947911
  O         6.3126091877        5.3261968543        6.9894419762
  H         5.7426259384        5.9017314780        6.4740576434
  H         6.5383116798        4.6175823181        6.3862742402
  O        -0.0428629366       -4.8690179583        5.4265849112
  H        -0.6237820343       -5.6470881394        5.5131492610
  H        -0.4902241395       -4.1526899755        6.0008649279
  O        -3.5296023146       -4.2392171119       -1.3589686615
  H        -4.4010612362       -4.3850833674       -1.0816077345
  H        -3.6055905497       -3.3836387895       -1.8517558425
