6
Properties=species:S:1:pos:R:3 i=0 time=0.0 E=-34.4504806384 pbc="F F F"
O       -3.42773097      -4.86648408      -2.72084626
H       -3.02515139      -4.37105010      -3.44179275
H       -2.92518132      -4.63047231      -1.93479836
O       -6.27028696      -3.97226762      -2.37537507
H       -6.87470893      -4.71449757      -2.46422200
H       -5.38391535      -4.34536741      -2.50015855
