6
Properties=species:S:1:pos:R:3 i=0 time=0.0 E=-34.4504806384 pbc="F F F"
O       0.45966243       4.68217607      -4.54982955 
H       1.31981038       4.62389329      -4.12083349 
H       0.01431977       3.85370306      -4.34628254 
O      -1.09048012       6.95231314      -3.34873265 
H      -1.34634711       7.58616447      -4.02466872 
H      -0.59908236       6.26001790      -3.81743782 
