       6
 i =      725, time =      145.000, E =       -34.4479265308
  O         2.5103633701        4.2504112702        3.6545133024
  H         1.9645437590        4.5468826296        4.4126554130
  H         1.8977259805        3.7341600055        3.1180923364
  O         5.3668990767        4.2477886348        4.3576282028
  H         4.8205958260        3.9526008918        5.0923712061
  H         4.7095023647        4.4521793346        3.6996963753
