       6
 i =      225, time =       45.000, E =       -34.4463965937
  O         2.7627272849        4.3067152490        3.3285451908
  H         2.0024096478        4.8514181376        3.5759028911
  H         2.5740135976        4.0813318575        2.3713378922
  O         5.9473988913        4.2902246712        4.8822494715
  H         6.3616972623        3.4881593088        5.2227699895
  H         5.1152398945        4.0183254347        4.5149738769