6
Properties=species:S:1:pos:R:3 i=0 time=0.0 E=-34.4504806384 pbc="F F F"
O        3.23391851       3.66800795       4.35000000
H        2.84356752       4.27242098       3.71000000
H        2.74592587       2.84389862       4.25600000
O        6.10867613       3.19510034       3.63500000
H        6.68594851       3.43589403       4.36500000
H        5.20882135       3.37771023       3.94700000
