6
Properties=species:S:1:pos:R:3 i=0 time=0.0 E=-34.4504806384 pbc="F F F"
O      -4.64384610       1.53205894       4.35000000 
H      -5.04620296       0.93557092       3.71000000 
H      -3.69426137       1.40723175       4.25600000 
O      -5.33884612       4.36134295       3.63500000 
H      -5.78714511       4.79752298       4.36500000 
H      -5.15309554       3.46213123       3.94700000 
