       6
 i =      900, time =      180.000, E =       -34.4465117076
  O         2.9109521404        4.6149695266        3.2333616781
  H         2.5561930950        3.6801193915        3.2652323910
  H         2.9349821909        4.8534659327        2.2975192400
  O         5.4520728029        4.4373762443        4.9505808326
  H         5.9586009966        3.6228630778        4.8757064919
  H         4.6271148830        4.2328918939        4.5070679647