       6
 i =      500, time =      100.000, E =       -34.4494170745
  O         2.4937792274        4.2496479233        3.9001030851
  H         2.3387848012        5.2027528933        3.9097354738
  H         1.8564987022        3.8315098390        3.2955441292
  O         5.3388865479        4.2251075628        4.1038677688
  H         5.7081547936        3.8707651718        4.9326634519
  H         4.3914160846        4.1459406476        4.1867965813
