     192
 i =        0, time =        0.000, E =     -1100.0577612512
  O         4.3239995583       -4.3939310008        5.7432683382
  H         4.5859669869       -5.1255570881        6.2987322380
  H         3.5874836247       -3.9491796767        6.2136322866
  O        -3.0678275920        2.2983232749        3.9570347485
  H        -3.3791217755        1.3776400900        4.0671984557
  H        -3.6723439808        2.9277429867        4.4097457602
  O         5.1198163547        3.1090047878        5.0240141659
  H         4.2093817072        3.4983383739        5.3890081563
  H         4.9525679663        3.1665682986        4.0435671195
  O        -2.8828728518       -0.2946876622       -3.8299034963
  H        -2.3277164234        0.1333861306       -3.2160558297
  H        -2.2034145490       -0.6787101314       -4.4289117133
  O        -5.0108418520        4.5900958140        5.3251315452
  H        -5.8781790628        4.1963316646        5.1847269746
  H        -4.8291269805        5.3276266189        4.7854705909
  O         6.1706567958        0.7905573834        2.4597854253
  H         6.8820543341        0.4910964037        3.0240294801
  H         6.7187610957        1.3071194437        1.7899057923
  O         4.5455820081       -4.7583465628       -0.5122690218
  H         4.1165582309       -4.2050006345        0.1965713461
  H         4.4898994273       -4.2135652952       -1.3113871084
  O        -1.9196694558       -3.0026170580       -1.4731974147
  H        -2.7840666541       -3.0044489848       -1.8980283462
  H        -1.7113295865       -2.1348558989       -1.1040240226
  O         6.1113575907       -3.3584216697        3.0286408449
  H         5.5215952065       -2.9411716128        3.6521359420
  H         6.3669738960       -2.6986837290        2.3702939698
  O         2.5774872356        3.8395330420        6.0112881372
  H         2.0744171230        3.2135434782        5.4637124104
  H         2.1274581070        3.9462873194        6.8255692743
  O         4.1806221163       -3.3283105396       -2.8819969943
  H         3.5853869950       -3.5382920990       -3.6420389029
  H         4.6423364639       -2.6054789010       -3.3484207378
  O         3.1177459562       -2.7747988424        1.1942874815
  H         2.9048612162       -3.1430828902        2.0457507536
  H         2.2855597825       -2.7143617463        0.6894280985
  O         0.5949818014       -5.4018978650       -5.2477558519
  H         1.0407596602       -6.1567776380       -4.8696452383
  H         0.3806872311       -5.5754794616       -6.1611012716
  O         4.7318731135        4.3327789805       -3.7532155504
  H         4.6568944188        3.3373273096       -3.6158166090
  H         5.4929333477        4.6027953914       -3.1914774178
  O         3.5772498624       -1.4790189005        4.8495619727
  H         4.4978721512       -1.4437692191        5.0980761643
  H         3.3680808918       -0.6696009650        4.3149063680
  O         0.9508021193        1.9400413525        4.9621601273
  H         1.1380458548        1.0749178916        5.4417423996
  H         0.7878142940        1.6050113604        4.0509648105
  O         1.6905215007       -3.3612905871        3.3750712771
  H         2.1951245893       -2.9897820736        4.0904211384
  H         0.9887002301       -3.8978054411        3.7907629703
  O        -1.9698715908        2.3029108138        1.3554309629
  H        -1.1471538560        1.8144990304        1.5493566039
  H        -2.3322060469        2.5212559475        2.2216330638
  O         1.6931779392       -0.4778447354       -6.0056869786
  H         2.3587919954       -0.9201986617       -6.5349287887
  H         2.0680075721       -0.1472691593       -5.1547824407
  O        -0.7325231390       -0.7326980816       -0.2202792381
  H        -0.8016683707        0.1326808828       -0.6302475216
  H        -0.8353514371       -0.5863800613        0.7249278853
  O        -3.5788747703        3.7252753175       -2.5216701924
  H        -3.9067336037        4.6357801671       -2.7389466050
  H        -2.5996574305        3.7744426547       -2.6085602460
  O         4.8966269844        4.4351288266        2.4859083429
  H         4.4010767625        4.2988847190        1.6807185928
  H         4.3401540207        5.1652975070        2.9558606455
  O         4.2705647002        1.7632016709       -3.2668285304
  H         4.8886799459        1.4637257087       -3.9520358496
  H         4.5716936971        1.3148775379       -2.4961072264
  O        -4.6371310425        6.3816050411       -3.0044833967
  H        -4.9171541989        6.8939554583       -2.2359967186
  H        -5.3915201682        6.3044494407       -3.5848783436
  O         5.5847165200       -1.4574940545        1.0010904535
  H         5.8194823231       -0.7135619973        1.6382945873
  H         4.7021894455       -1.8747092323        1.1545710514
  O         2.4112717372        0.6076996274        0.6015379864
  H         2.9665175684        1.2848350593        0.1433833128
  H         2.1430188510        0.0071547950       -0.1186733042
  O        -5.0386839105       -4.5044262394       -0.9030318754
  H        -5.9346616928       -4.5680396548       -0.4899131668
  H        -4.9175126946       -3.6095520146       -1.3276524296
  O        -4.8277431764        5.1502165505        2.3217129896
  H        -5.7768469579        5.0717656350        2.4272262640
  H        -4.5663019077        4.2214320925        2.0689048123
  O         5.8071940183        1.2482505551       -5.5382790906
  H         6.6804123293        1.7364132158       -5.3369716615
  H         5.5666747795        1.6343541177       -6.3816883271
  O         1.5590924141       -1.5325191224       -1.5362660857
  H         1.5799463141       -2.4921942296       -1.6269140931
  H         0.7535508286       -1.3772434502       -1.0483355968
  O         4.0676198032        2.6196942835       -0.6093198447
  H         5.0406953230        2.7380189991       -0.8087895841
  H         3.8167790721        3.5339657591       -0.3323379842
  O        -0.5252130346       -1.5332109911        2.4142834428
  H         0.1990190853       -2.0511161714        2.7668126225
  H        -1.3282158550       -2.0386090996        2.5638185267
  O         1.3281512406       -5.8338346628        1.6037606890
  H         2.1886884893       -6.0689645957        1.2289408255
  H         1.5659220256       -5.6436583879        2.5560999804
  O         0.0027680795       -3.4350085792       -3.3492659416
  H        -0.7229125486       -3.1825787652       -2.7345469847
  H        -0.0857833592       -4.2687066897       -3.7911091717
  O        -4.5852455933        2.4089649728        1.2725076367
  H        -3.6130666276        2.2873345902        1.0759914504
  H        -5.0646452325        2.2598777679        0.4104756849
  O         2.4101352216       -3.4224518960       -4.8738980026
  H         1.8798889358       -4.2349499193       -4.8301991976
  H         1.8217992503       -2.7154013760       -4.6524171780
  O        -0.9610443639        3.6417440981       -3.1558429860
  H        -0.6432651568        3.7282220467       -4.0981807220
  H        -0.2372735902        4.0213858384       -2.6686928524
  O        -4.6492925616       -5.1890525691        4.0277973339
  H        -5.2442531290       -4.4592759372        3.8461392932
  H        -4.6703411293       -5.7813401687        3.1951894468
  O         3.2626836138        6.2990508297        4.0381526334
  H         3.7365993125        6.8569926813        4.5972459311
  H         3.0119666600        5.4653247717        4.4870462925
  O        -4.1875076427        2.1961312969       -4.9617499190
  H        -3.6183929912        1.4110419164       -4.9198015591
  H        -3.9743250514        2.7006134377       -4.1139687150
  O         3.4028492064        0.6927528537        3.1422896351
  H         3.1997683312        0.5384989870        2.2208633217
  H         4.2370651977        1.1792336483        3.1462981015
  O        -4.2493015255       -0.3284699874        4.0133396823
  H        -4.9383451404       -0.5957773644        4.7389908424
  H        -3.9278349635       -1.2039457720        3.7198142839
  O         0.3706927825        1.0472221389        2.2652322019
  H         1.1138901302        1.0104254443        1.6782025386
  H         0.0732689335        0.1448985847        2.5087353411
  O        -0.9479222702        4.8764198262        0.2719927530
  H        -1.3259344280        3.9647862953        0.3493580560
  H        -1.7193434690        5.5062370902        0.4136451441
  O        -0.7902588882       -1.3341917850       -5.0675325308
  H        -0.5495231759       -2.0534369856       -4.4602420940
  H         0.1110329606       -1.1426819389       -5.4809608161
  O        -5.7295456320        2.1999797215       -1.4133126745
  H        -4.8389427718        2.5154724874       -1.5624601252
  H        -5.7957355152        1.2915933641       -1.6498910808
  O         5.8768611423       -0.2997225306       -1.6401855445
  H         6.5240592785       -0.8773208025       -2.0157905673
  H         5.6707625549       -0.6558817258       -0.7336654214
  O        -0.5590501369        0.9982962910       -2.1906275550
  H        -0.6448188779        1.8990513485       -2.4935293226
  H         0.3371352556        0.7588804732       -2.5149299235
  O         1.0884349419        5.7099143633       -1.4413460967
  H         1.0707683514        6.6633461236       -1.2267033466
  H         0.3537534366        5.3078916466       -0.9140380433
  O         6.1925606813       -1.1954713269        5.6463158414
  H         6.4968406469       -1.8884483203        6.2861362066
  H         5.8028343975       -0.5739325800        6.2590080015
  O        -2.1677095972       -5.1686596800       -4.2095923077
  H        -1.5014469863       -5.8410163749       -4.4267970207
  H        -2.9742356661       -5.6662907587       -3.9656947182
  O        -4.5031306498       -2.0282822584       -2.7150700257
  H        -4.9307912120       -2.5080138118       -3.4231741231
  H        -3.9169385060       -1.3704454597       -3.1159729127
  O         3.4256375608        5.3456556763        0.1636867988
  H         2.7392121505        5.5453278676       -0.5287223042
  H         3.9615060639        6.1822418055        0.0724111867
  O        -5.3182741716       -3.5385002588       -5.1378415205
  H        -4.4276281258       -3.7080969267       -5.3627903528
  H        -5.7046932538       -4.4301970340       -5.2351599487
  O         0.0634926406        4.7561930004        3.0988482176
  H        -0.3509652610        3.9687290276        3.3702705406
  H         0.0734881983        4.7882788832        2.1237135347
  O        -2.5466810622       -3.1547398593       -6.4344948658
  H        -2.4638915300       -3.8008155575       -5.7542558708
  H        -1.9459229808       -2.4250614327       -6.1403246470
  O        -2.8530438858       -2.9662616824        2.9410190331
  H        -3.2274971969       -3.1111326179        3.8921107183
  H        -3.0676914976       -3.8046194629        2.5282069381
  O         1.8462056545        5.2294914639       -3.8021976617
  H         2.8384918081        4.9421624725       -3.7473925187
  H         1.5295654345        5.4271308064       -2.8824936945
  O         1.8885666691        0.2043281524       -3.5235942370
  H         1.9308916398       -0.4676702500       -2.8745926871
  H         2.6148912836        0.8309837411       -3.3335391454
  O        -0.7791234447        3.6802791778        6.6089579367
  H        -0.4875278516        3.0722864567        5.9589833961
  H        -1.7353464469        3.7314079834        6.3412904496
  O         0.8688857778       -4.2064335100       -0.2074053359
  H         0.9858588394       -4.6546164779        0.6512445238
  H         0.0000450290       -3.8561516301       -0.2181353140
  O         6.1680469974        6.2457432577        7.0634994868
  H         5.5282633815        5.6079390610        7.3956310899
  H         6.7866618713        5.6981285514        6.5183025558
  O        -0.0412361906       -5.4485521077        4.7820705632
  H        -0.0446418676       -6.1926215019        4.1865512999
  H        -1.0037274585       -5.3452782257        4.9589396358
  O        -3.0631273493       -5.7304035116        0.5721009347
  H        -3.6550783792       -6.2185084421        1.1876989720
  H        -3.6108327449       -5.2864507190       -0.0667992711
