       6
 i =      600, time =      120.000, E =       -34.4491554985
  O         2.5211459954        4.2523834231        3.7920817608
  H         2.0884910285        5.0257053067        4.2466746493
  H         1.8787524419        3.8194956482        3.2101248504
  O         5.3335917816        4.2604471603        4.2147758824
  H         5.1766557476        3.8939221425        5.0824788615
  H         4.4454405142        4.2152070867        3.8032670136
