     192
 i =     4100, time =     6150.000, E =     -1100.0765181782
  O         5.6423542748       -3.9752438881        3.7132282689
  H         5.8078698296       -4.8939968533        3.4546070877
  H         6.4368905778       -3.6454393509        4.1272855319
  O        -5.0733380929        2.3110921402        5.0666055002
  H        -4.7474902328        1.7336351224        4.3269560742
  H        -4.3854269003        2.4137275361        5.8458138267
  O         6.0133108068        4.5992459452        5.0304415637
  H         6.1077369620        5.1714139674        4.2261610958
  H         6.6281698452        3.7858050515        4.7968170275
  O        -2.4219338644       -0.1372679733       -3.6364913436
  H        -2.1030930663        0.3700015338       -2.8966453107
  H        -1.6316767194       -0.6285783950       -3.9622710173
  O        -3.4739714059        6.1580709899        5.9267819494
  H        -4.3505335876        6.1480966911        6.4235689875
  H        -3.5434778457        6.3645865933        5.0041131551
  O         7.8305386679       -0.1098378718        3.3479273769
  H         7.5280584959       -0.7526415788        4.0460307097
  H         7.0294740930        0.1878320979        2.7891034364
  O         4.7851715067       -5.4490646854       -0.0162373415
  H         4.1078603362       -4.8720353258       -0.3838889520
  H         4.4376482382       -6.2747273076       -0.3456656878
  O        -1.1185367430       -2.9038638002       -1.3272328773
  H        -1.9749344580       -3.3914568655       -1.2705923672
  H        -1.2705264305       -2.0724432459       -0.7974516721
  O         3.2948139391       -2.6489062928        4.2387795170
  H         4.1533139883       -3.1596147011        4.3138822136
  H         2.9541946816       -2.8037197967        3.3725783125
  O         2.7638137333        3.1735091857        5.6038820139
  H         1.8184046749        2.9860145647        5.5202157452
  H         2.9292808273        3.3179446270        6.5270502220
  O         5.3337716230       -5.6458289522       -3.3273784327
  H         5.2285957981       -5.2148312059       -2.4830492427
  H         4.4372463914       -5.6181186271       -3.7057944414
  O         2.4819485139       -2.8617707377        1.5611129119
  H         1.9043422023       -3.5350287861        1.1441148267
  H         3.2269541241       -2.8251435446        0.8968751544
  O         2.5282634472       -5.4948242154       -3.9207959480
  H         2.3959967324       -6.4742221283       -3.9895345821
  H         2.3591129842       -5.2561735304       -4.9043206023
  O         4.7764926195        4.0797962231       -2.1160739666
  H         5.3252269859        3.2825216101       -2.1187836198
  H         5.4444838038        4.7623372394       -2.2588490584
  O         3.0614582918        0.1326514412        4.9365461277
  H         3.0506219830       -0.7275951911        4.5461200846
  H         2.6582598988        0.7035301010        4.2648498646
  O        -0.2735874931        2.7020660828        6.4686179810
  H         0.2554907681        1.9746278687        6.9135272475
  H        -0.9983431285        2.1922305271        6.1225214351
  O        -1.4482413284       -3.6605915519        2.5745432474
  H        -0.9923120305       -3.8984901262        1.7442949219
  H        -0.9740595518       -4.0247071841        3.3252243046
  O        -2.4380780825        3.3792026216        3.2192592346
  H        -1.7230923287        2.6752316069        3.3101358431
  H        -3.0052086717        3.4731577577        4.0217861451
  O         1.7009907421        0.9415901385       -5.2125156967
  H         2.1033415187        0.6698209621       -6.1299111912
  H         2.4181893534        0.7929382040       -4.6204607381
  O        -1.2095639841       -0.6648518084        0.2806096009
  H        -1.6699637009       -0.7484904423        1.1330684721
  H        -0.2812846637       -0.4778480134        0.4106151151
  O        -2.9472460377        3.5523053087       -2.8871433794
  H        -3.1099114475        4.5004933397       -2.5852777352
  H        -2.4505635914        3.1018717149       -2.2131584189
  O         5.2380105784        6.1738135283        2.5178798925
  H         4.7841138615        6.6648198495        1.7617802118
  H         4.4809419435        5.9053431859        3.1191331218
  O         6.9192550533        0.2248804395       -3.6077973440
  H         6.8821230783        0.4371252320       -4.5879867427
  H         7.1247393282       -0.6708644045       -3.4528266710
  O        -4.0798738136        5.6886319717       -2.4520624656
  H        -3.8721384054        6.5801260667       -2.1982894384
  H        -4.6167956494        5.6487584410       -3.2983992779
  O         4.9507752726        0.9476640739       -0.5595567387
  H         4.9194107527        0.9057145277        0.3966635661
  H         5.8526073817        1.2989412766       -0.6720780174
  O         1.4294767091       -0.2506489044        0.9079300622
  H         1.9938610792        0.0862298260        0.1609912461
  H         1.6516895381       -1.2009087020        1.1095129932
  O        -5.1434502030       -4.0329298461        0.7672411104
  H        -4.8276843789       -4.4308990820        1.6122992869
  H        -5.7484594625       -4.6636673143        0.4160118083
  O        -3.7762379927        4.8615691206        1.1808390969
  H        -4.7335375123        4.7480099466        1.0565928855
  H        -3.4684500657        4.1347424000        1.7017828693
  O         5.8572444923        0.4422327875       -6.1620934604
  H         6.2911859045        1.0801063493       -6.6869775128
  H         4.8965972827        0.6412986954       -6.2526040162
  O         3.2787568262       -3.3159859874       -1.0134534643
  H         3.9141843982       -2.8555628164       -1.5509071910
  H         2.4438918336       -3.2409892601       -1.5245878968
  O         2.3699442553        1.4767160516       -0.9594326145
  H         3.3085756477        1.5666925374       -0.9157826196
  H         2.1057796328        2.0655037930       -1.6709877877
  O        -2.1264908162       -0.9871562365        2.8658942378
  H        -2.1935917469       -1.9627351479        2.8605358497
  H        -3.0679972401       -0.6733796559        2.7927309031
  O         2.5141799587       -8.3425482928        1.9153510461
  H         2.8701241401       -8.0030654854        1.0714516946
  H         2.8151870932       -7.6777224283        2.6080482387
  O         1.0618590055       -3.1496746989       -2.9203390193
  H         0.3103490076       -3.4626854936       -2.4097190328
  H         1.3794208862       -3.9412136299       -3.3733163404
  O        -6.5784223168        3.7049708607        1.0109318141
  H        -7.2849289779        3.1901719019        0.6225932628
  H        -6.9980546190        4.3972894354        1.5759960758
  O         2.0393832779       -4.7660961951       -6.6022317652
  H         1.1404151832       -4.6410727533       -6.9307091898
  H         2.6360672925       -4.1189769590       -6.9473267652
  O         0.7710374912        2.8783401242       -2.6615991133
  H         0.4230935230        2.7333268417       -3.5723106601
  H         0.7100229336        3.8487756421       -2.5648568498
  O        -3.6114365624       -5.7358867444        3.2568513722
  H        -2.9989879349       -5.0988501266        2.8848782852
  H        -3.7802545316       -6.3970262816        2.5746735263
  O         3.0631395321        5.3932802015        4.2872855315
  H         2.6979645568        6.1834623079        4.8008132402
  H         3.0366099121        4.6364588298        4.8872548296
  O        -3.2496549501        2.3236694592       -5.3232030987
  H        -3.0179224497        1.5531286995       -4.7623845616
  H        -2.9797998014        3.0193248437       -4.6690522038
  O         2.2748349828        1.5473280096        2.7053155699
  H         2.4239799180        2.4695008779        2.3939984505
  H         1.9967506142        1.0458635228        1.9234574540
  O        -7.6356576459        0.6564338489        2.0480826105
  H        -8.5083147213        0.8899145135        2.5603014767
  H        -7.6039194385       -0.3515588763        2.0388941129
  O        -0.6463749796        1.3805445658        3.6022754541
  H         0.3016622283        1.3108313399        3.4206543005
  H        -0.9936498976        0.4969914710        3.3624491427
  O        -1.3608850120        5.3261808433       -0.3633869632
  H        -0.9326557790        5.1586031818        0.5182294058
  H        -2.2947669436        5.1426629230       -0.1449625660
  O        -0.0869411296       -1.2406058910       -4.5558740859
  H         0.4365635464       -1.6855213854       -3.8739622828
  H         0.5784899715       -0.6226153843       -4.8897631038
  O        -5.6516218948        2.3056909950       -1.9570057770
  H        -4.9388173497        2.9012424076       -1.8894335536
  H        -5.5244495449        1.5672453759       -2.6047128761
  O         5.7266491221       -2.1384604192       -1.2858510691
  H         6.3290759535       -2.2932668190       -2.0376095549
  H         5.5358302123       -1.2004957235       -1.1655502137
  O        -1.5752170557        1.6593762104       -1.4560469445
  H        -0.8210467804        2.0573568503       -1.9119451303
  H        -1.3219220660        0.9656067440       -0.8067511483
  O         0.6053068178        5.3613449383       -1.9938025014
  H         0.4177681993        6.1306707747       -2.5333307929
  H        -0.2431787102        5.3026129870       -1.4165173832
  O         6.8990680589       -2.0051162244        5.2687734494
  H         7.4269409769       -2.4361936978        5.9695018217
  H         6.3343388998       -1.3530335545        5.7195567579
  O        -1.1499516662       -5.5723133313       -3.7808429219
  H        -1.0402627482       -6.3284559406       -4.4171142888
  H        -1.9845475366       -5.7064197065       -3.3375273754
  O        -4.1900039492       -2.2674779028       -3.1627340536
  H        -4.0841592596       -2.5395863001       -4.0974320766
  H        -3.5330679658       -1.5434046285       -3.0303308031
  O         2.8924984454        5.0249970810       -0.5214837206
  H         2.0693294376        5.2110759638       -0.9928965578
  H         3.4270710233        4.5427705491       -1.1076862669
  O        -3.8215851356       -3.4785973647       -5.8379041419
  H        -2.8784964210       -3.3921930798       -5.7439773430
  H        -4.0147140362       -4.4318945065       -5.8283665127
  O        -0.1587950125        5.0024735476        2.0435550798
  H        -0.6918361246        4.5680273362        2.7318351965
  H         0.7728640847        4.7429696606        2.1086712740
  O        -1.2926974126       -3.4100963945       -5.3955672098
  H        -1.1279928639       -4.0583155528       -4.7189318624
  H        -0.7500066629       -2.6362036731       -5.2897449415
  O        -7.3496458221       -1.9712266897        1.6035846945
  H        -6.7503864595       -2.4027540911        0.9742155367
  H        -7.3175217372       -2.5965915496        2.3407275137
  O         3.0438791592        4.2444001799       -4.2312536808
  H         3.8040121995        4.1893867737       -3.6491821748
  H         2.3116131479        3.7174119544       -3.8845235684
  O         3.8559446999       -0.0757824789       -3.4113587307
  H         4.0066538744       -0.1232263363       -2.4837417119
  H         4.6565008500        0.3400971622       -3.7756160712
  O        -1.0430548837        5.3187119496        6.5180017980
  H        -0.8160277367        4.3916984026        6.5687105563
  H        -2.0058237843        5.3654120358        6.4347376796
  O         0.5604764962       -4.3892709342        0.2154749454
  H         0.3243484478       -5.2906650881        0.4166685273
  H        -0.0134909041       -4.0019377280       -0.3972032050
  O         6.7883794268        5.5241407589        7.2504299226
  H         5.9879818912        5.9153610129        7.6587805509
  H         6.4832156148        5.1796047538        6.3465742434
  O        -0.5112851876       -4.8613612435        4.9650836043
  H        -0.7470156101       -5.7572265012        5.1943683284
  H        -0.9744312747       -4.3117544912        5.5853798479
  O        -3.5729535470       -4.2155618682       -1.4999313382
  H        -4.0985170321       -4.2386966401       -0.6698581001
  H        -3.8071908260       -3.4087747455       -1.9930536010
