     192
 i =     3200, time =     4800.000, E =     -1100.0645046355
  O         5.8665295421       -3.6925309432        4.5693634558
  H         6.6280326110       -4.0860545478        4.2388206866
  H         6.0033693388       -2.7881378760        4.8395988701
  O        -3.4808786466        1.7263994322        5.0778003065
  H        -3.5929208709        1.1646161195        4.2767018952
  H        -3.7516701744        1.2043917506        5.8794128574
  O         7.2641548129        3.9302580326        5.0061116932
  H         6.7762625529        4.1167573450        4.2237116845
  H         7.7204548621        3.0677536410        4.8549190484
  O        -2.4236780963       -0.5356527582       -2.3511624839
  H        -1.9908152335       -0.6403091918       -1.4544538706
  H        -1.7472393946       -0.8867322952       -2.8850963798
  O        -3.6432269932        7.1180124341        6.0272623252
  H        -4.2682559239        6.4982279414        6.4426332982
  H        -3.7294654003        7.0474530868        5.0888958614
  O         8.1112129306        0.2593096059        2.5141845034
  H         7.1333741559       -0.0362181620        2.7497555402
  H         7.9514387584        0.9035253357        1.8338294823
  O         4.2143065828       -5.6793534217        1.1619473262
  H         3.6414311863       -4.9577509473        1.4895910760
  H         3.7237648168       -6.2305528441        0.5298638031
  O        -0.8628382739       -3.8078252182       -1.0707540007
  H        -1.6025669727       -4.4112183787       -1.3764638693
  H        -1.1946564967       -2.9452037477       -0.8034835257
  O         3.3987041566       -2.0634891993        3.8655338747
  H         3.6515627090       -2.7107615954        4.5085944326
  H         3.2449308950       -2.5590607613        3.0562191324
  O         3.8293631905        2.9617244811        5.1047459655
  H         3.0467240077        2.4964307468        4.8581371892
  H         3.6287054850        3.6354712966        5.8222821557
  O         5.5529314592       -4.5823895104       -3.7221368185
  H         5.2862077595       -4.1684744980       -4.5406270664
  H         5.6709372573       -3.8070190860       -3.2399475117
  O         2.6238516480       -3.5734481162        1.8295862457
  H         1.7062457875       -3.9214168621        1.6477668945
  H         3.0499122058       -3.3231387424        1.0025002151
  O         1.2897153589       -6.0469527758       -4.5187514987
  H         1.9188680235       -6.7271661924       -4.8383461564
  H         1.1049623270       -5.6579986715       -5.4096236435
  O         4.7226533273        5.2171559310       -2.8850424101
  H         5.2874375670        4.4480937209       -2.6076076115
  H         5.1905520367        5.9999321299       -3.0823968585
  O         1.9327965582        0.2380859041        4.6054078770
  H         2.4088510151       -0.5872595650        4.4024555241
  H         1.6885204060        0.6074974125        3.7247421456
  O        -1.1749230812        2.6737939773        7.6466904154
  H        -0.8035251066        2.0110412310        7.0634915515
  H        -2.0498028161        2.3208302199        7.7117398270
  O        -1.8544100288       -3.7356364212        3.3576795692
  H        -1.2575025583       -3.8498598538        2.5758767756
  H        -1.4230345400       -4.3504873752        3.9953940667
  O        -1.9956798331        4.2653752695        3.6114040677
  H        -1.9432382433        3.3277730903        3.4670649628
  H        -1.9515390404        4.4502636790        4.5432908037
  O         0.8102001811        0.9551587124       -5.5823892861
  H         1.1197191670        0.7282936909       -6.5156497226
  H         1.5125362742        1.2745839398       -5.0023188836
  O        -0.8189412494       -1.2533003770       -0.2067477541
  H        -1.1593950294       -1.2598843085        0.7157094107
  H         0.0700622750       -0.8758166889       -0.1947303566
  O        -3.8771900644        3.7494007117       -2.2953439998
  H        -3.8285579385        4.6280703431       -2.8283990986
  H        -3.3878869072        3.9098927158       -1.4671829421
  O         6.1889836994        3.8395409985        0.9236278864
  H         5.9908132772        3.6155858968       -0.0319719200
  H         5.4447541392        4.3593945230        1.2579050190
  O         5.0757494461        0.9665638382       -3.5748407144
  H         5.4274336861        1.2265849317       -4.4612487763
  H         5.1901401184        0.0427322807       -3.4297128048
  O        -3.6964696530        5.8578513666       -3.5535956779
  H        -4.0291534138        6.6391652450       -2.9805313886
  H        -4.2830113213        5.7149432761       -4.3149321381
  O         5.2592475023        0.5847856976       -0.1514089726
  H         5.1466557912        0.2014374456        0.7176588299
  H         6.1962998753        0.9581694148       -0.0524116580
  O         1.7066137024       -0.0800873256       -0.0125271776
  H         1.9568316559        0.5977035497       -0.6027443344
  H         2.2476468888       -0.8282008981       -0.1756708749
  O        -5.5657781810       -5.2604989828        0.2367483540
  H        -4.9756716630       -5.5756738782        0.9065505265
  H        -6.4850000553       -5.6912199634        0.4625395688
  O        -3.8167007733        4.9363473490        1.7083115482
  H        -4.6098032686        4.4141908892        1.5486472833
  H        -3.2585649601        4.5136759317        2.3596929490
  O         5.6321348617        1.6539608760       -5.8867860832
  H         6.1729257609        2.2881254071       -6.4014584558
  H         4.8375117936        2.0443619477       -6.2220681617
  O         3.2497740661       -2.2878287571       -0.5285914354
  H         3.9228594239       -2.1223289033       -1.1667533184
  H         2.6298260438       -2.8376447001       -1.0255651344
  O         3.0122372200        2.2337718419       -0.7035235102
  H         3.9289508768        1.8698274730       -0.5954067944
  H         3.1935269623        3.1775751604       -0.8264381897
  O        -2.0377609588       -1.0235807248        2.2588100973
  H        -2.1081795573       -1.7679801066        2.8904671070
  H        -2.8987229175       -0.5299502981        2.2205445540
  O         2.5728684555       -8.4443048491        1.8496312136
  H         2.7483396297       -8.2016717350        0.9465515014
  H         3.4068768124       -8.1826107729        2.3902874774
  O         1.6719106896       -3.6698162306       -2.4031896630
  H         0.7986015257       -3.8539102663       -2.0471576179
  H         1.7663896037       -4.3841864340       -3.0477097991
  O        -4.5639735407        1.3910097335        0.1417870514
  H        -3.5928342561        1.2603011571        0.0233070275
  H        -4.6253423530        2.2721931883       -0.1389494849
  O         4.4667778013       -5.9172231691       -7.2443989488
  H         3.6005152695       -5.9361856781       -6.8217448426
  H         4.8441338133       -5.0305847543       -7.3828953452
  O         0.0842607063        2.5454915122       -2.2974656683
  H        -0.2726844205        2.5546438989       -3.2203554400
  H         0.1921088142        3.4960539239       -2.0280060377
  O        -4.1913124877       -5.1678955285        3.1389819889
  H        -3.4611392565       -4.5633777102        3.0690080170
  H        -3.9294172034       -5.9735696620        2.6585084287
  O         4.8479494513        4.5319160212        3.3560266081
  H         4.6899072902        5.3593763528        3.9254339238
  H         4.4779609729        3.7953298727        3.9431733356
  O        -3.5214178091        1.6193871115       -4.2580650423
  H        -3.0814046088        1.0682438370       -3.5980874002
  H        -4.0207792903        2.2573357090       -3.6569700360
  O         1.3577234705        1.4570165515        2.1546283081
  H         2.0201367653        2.0960042340        1.8368173549
  H         1.4542284038        0.7733353908        1.4990974909
  O        -7.0394923838       -0.6380572583        2.4432322657
  H        -7.5952189433       -0.7925286413        3.2009610661
  H        -7.0530617685       -1.4869691839        1.9790121747
  O        -1.1980523587        1.7860722283        2.7683337988
  H        -0.2059812394        1.7004474739        2.5958621437
  H        -1.4887076709        0.8712536979        2.5860265266
  O        -2.3689933227        5.8512542323       -0.4155294366
  H        -2.7460518612        5.3209639318        0.3085825932
  H        -2.9445355573        6.6127746136       -0.6019891571
  O        -0.1241693485       -1.0337344087       -3.9133041960
  H         0.5300770423       -1.4946500626       -3.3375645057
  H         0.3362991557       -0.4613074059       -4.5818464359
  O        -6.4424278456        3.2342155727       -1.7589076722
  H        -5.4565831205        3.2698919274       -1.8553816591
  H        -6.7302139797        2.4227993279       -2.2222441582
  O         5.4730938925       -1.3155661733       -2.3553006076
  H         6.3780244999       -1.7262791495       -2.3168183465
  H         5.4683585535       -0.7070172940       -1.5674884776
  O        -2.1209277570        2.2752409044       -0.1727735504
  H        -1.4439509890        2.1419183667       -0.9242977749
  H        -1.6408163636        2.2858114410        0.6617448410
  O         0.5321802929        5.3870802421       -1.6200989018
  H        -0.0762354804        5.8268811982       -2.2400812965
  H        -0.0165118147        5.2917999348       -0.8312679609
  O         6.6898920933       -1.0281870270        5.5456327019
  H         7.3991980367       -1.2528071513        6.1595899221
  H         6.2173358817       -0.3160928395        5.9012355075
  O        -1.2766855391       -5.7340142111       -3.4744999266
  H        -0.7201449387       -6.2402598238       -4.1776867223
  H        -2.0650655789       -6.2362133840       -3.4882678305
  O        -4.2026527642       -2.3803170488       -2.8327797128
  H        -4.1723991519       -2.3950318843       -3.8581538922
  H        -3.6716552469       -1.6458217114       -2.4634426234
  O         3.1056897360        5.2035360777       -0.8234333821
  H         2.2020742532        5.5030367040       -0.9769070515
  H         3.5663276889        5.1920565096       -1.6438625829
  O        -3.9334638256       -2.7978624406       -5.4398100966
  H        -2.9667117857       -2.7527424057       -5.2646208083
  H        -3.9148850274       -3.6270873668       -5.9951461745
  O         0.2191061570        5.3734983561        2.3024195639
  H        -0.4992958213        4.9240085235        2.7200573227
  H         0.9807728309        4.7600899804        2.2814125359
  O        -1.2261440191       -3.2200575243       -5.1203739594
  H        -1.3658024637       -3.9084079283       -4.4235302801
  H        -0.7774803914       -2.4639576383       -4.6315825859
  O        -7.0769680884       -3.0245267383        1.7157139088
  H        -6.5554056928       -3.7437499755        1.3093263253
  H        -7.0070630339       -3.2390275827        2.6835512417
  O         3.2410670825        4.4018969985       -5.1656964702
  H         3.8466088617        4.7410194048       -4.4521818597
  H         2.8622456402        3.6228199379       -4.6608382739
  O         2.6189555776        2.1568202404       -3.8686196051
  H         2.0904967997        2.2982843178       -3.0738580387
  H         3.4123269363        1.7020351336       -3.5562901181
  O        -1.5709613636        5.1068865074        6.2123447645
  H        -1.4205420928        4.2528474562        6.7015427962
  H        -2.3909805095        5.5889050181        6.3198164737
  O         0.0883680233       -4.3470234803        1.4724971213
  H         0.0640204943       -5.3038602425        1.6875510134
  H        -0.1607250407       -4.3141972570        0.4979627821
  O         7.0650951999        5.3649592231        7.0058526785
  H         6.1663390157        5.6672474784        6.9489920021
  H         7.1586395343        4.7956798971        6.1950040465
  O        -0.2681063166       -4.9806450211        5.2256129220
  H        -0.6214139574       -5.7553833627        5.5594360739
  H        -0.3996412294       -4.2864201574        5.8705381514
  O        -4.1497553577       -4.8463155545       -1.9524971191
  H        -4.8644215698       -4.9929212904       -1.2499375124
  H        -4.1687058933       -3.9117431491       -2.1868952379
