       6
 i =      375, time =       75.000, E =       -34.4483488786
  O         2.4191801535        4.2664790674        4.0499841956
  H         2.6715430379        5.0894414984        3.5534835013
  H         2.0360817838        3.6491980287        3.3906439635
  O         5.3962627666        4.2192486541        3.9810726695
  H         6.0072272228        3.8790590438        4.6557069710
  H         4.5148355173        3.8406450907        4.2342271420
