     192
 i =     3700, time =     5550.000, E =     -1100.0722050993
  O         6.8880303197       -3.4002715715        3.5746683996
  H         7.2805552172       -4.2672284477        3.5941091109
  H         7.3004477562       -2.9051892886        4.3598903679
  O        -3.7169890669        2.2328321001        5.0028127871
  H        -3.9916040530        1.4460574967        4.4881950021
  H        -3.5066567347        2.0910534642        5.9305230155
  O         7.3366870702        4.3156199232        4.2701378406
  H         6.8249757580        4.2142268119        3.4376431058
  H         7.9463247977        3.5823222019        4.3961690921
  O        -2.7248128013       -0.4751941631       -3.7039700895
  H        -2.3848747034        0.1438781830       -3.0320941276
  H        -1.8891712734       -0.8750367801       -4.0113223511
  O        -3.9241470283        6.3120617867        6.1380238489
  H        -4.7000811700        5.7022124327        6.2665009383
  H        -3.8204305335        6.4131262672        5.2072823845
  O         7.9759970994        0.0714673539        3.5135540364
  H         7.8146831129       -0.3418482874        4.3761092553
  H         7.1168020327        0.1924409897        3.0803459862
  O         4.4042766542       -5.6073956637        0.1226888868
  H         3.9000412429       -4.8079490152        0.3040474546
  H         3.7276267349       -6.1678592951       -0.3179455505
  O        -0.8799159821       -3.1795704048       -1.3477041330
  H        -1.8159082859       -3.4424777643       -1.1538160715
  H        -0.8341587438       -2.2481339062       -1.0531483290
  O         4.0663794923       -2.2390028279        5.1606012043
  H         5.0719030253       -2.3165666880        5.0199943081
  H         3.6962652571       -3.1214016842        4.9993886552
  O         4.0878233479        2.7510228274        5.7897710517
  H         3.6181847891        1.8551709405        5.7358003426
  H         3.6238974637        3.2121060946        6.5795912234
  O         5.6982817739       -5.1226874847       -2.2779588882
  H         5.4532184175       -5.0362077663       -1.3558408293
  H         5.4106077979       -4.2095377387       -2.6040917641
  O         2.7714263337       -4.3694360406        1.9941061176
  H         1.8791445653       -4.4941400295        1.5689434280
  H         3.0690967038       -3.4407878072        1.9143371626
  O         1.9724622341       -5.3240478082       -4.3060288074
  H         2.2887746759       -6.2611501346       -4.2751429887
  H         2.5119143593       -5.0064878101       -5.0252132805
  O         4.6012040353        4.9264790308       -2.9097346657
  H         5.3326352068        4.3251378713       -2.8208244909
  H         5.0205130075        5.8090105592       -2.7194618671
  O         2.9447455851        0.3319327099        4.7105398916
  H         3.3290247828       -0.5652638487        4.8528506949
  H         2.6283431905        0.4618568996        3.8075027075
  O        -0.3563762637        2.8830399297        7.0053074787
  H         0.1886779708        2.1438274694        6.6865905034
  H        -1.2213543284        2.5070173152        7.1780095331
  O        -1.7281510841       -4.0295201881        2.9047282616
  H        -1.2572191139       -4.4352516681        2.1431922306
  H        -1.1299643607       -4.1471889879        3.6822161630
  O        -1.9002734109        3.3015579643        3.3363578874
  H        -1.3447674871        2.5287206778        2.9966497302
  H        -2.3743034048        2.9843051336        4.0933216346
  O         1.1944985685        0.5288050598       -5.7155964360
  H         1.7993550042        0.3336106313       -6.4991272001
  H         1.7755091283        0.7706564192       -4.9537801324
  O        -1.0760844151       -0.6158574903       -0.1774338440
  H        -1.3105767071       -0.6846907184        0.7560422189
  H        -0.1006684776       -0.5624696288       -0.1370323532
  O        -3.4611344100        3.6144394880       -2.6145337696
  H        -3.5934107828        4.5030735400       -2.3039808280
  H        -2.8753633485        3.2226040571       -1.9730072532
  O         5.3836571718        5.7822727434        2.5006474908
  H         5.0085505221        6.3487829159        1.8038673533
  H         4.6218586439        5.4573163084        2.9748819353
  O         5.4977521197        0.5450118042       -3.2143451236
  H         5.6805921553        0.7827981081       -4.1625490302
  H         5.2334181131       -0.3528500205       -3.1357332165
  O        -4.0952113885        6.3239873500       -2.2390856410
  H        -3.6650187380        7.0149304183       -1.7438214461
  H        -5.0185651393        6.6228617504       -2.3027604614
  O         5.3229882281        1.1321363632       -0.1375734007
  H         5.3468452125        1.0559849940        0.8387879284
  H         5.5594413108        2.0779258521       -0.1243648995
  O         1.6126824676       -1.0748555807       -0.0756173244
  H         1.7107535581       -0.3095684168       -0.6106269786
  H         2.0285801758       -1.8221165337       -0.5257062694
  O        -4.8909267818       -4.0729222117        0.9784909512
  H        -4.9917511354       -3.5168304112        1.7586258243
  H        -5.0195927775       -4.9446421616        1.3033481136
  O        -3.5262122323        4.4638415152        1.6106774175
  H        -4.2893980378        4.0367687914        1.1629958262
  H        -3.1078620781        3.9017713875        2.3068033449
  O         6.3337189190        1.4830397369       -5.6959296865
  H         6.8570864225        2.2457345837       -5.3819418401
  H         5.5636798300        1.9200068855       -6.1402499126
  O         3.0103983689       -2.9990110161       -1.1240054414
  H         3.8705314888       -2.6106650553       -1.2024104093
  H         2.5278996303       -3.0064440300       -1.9803319699
  O         2.7363218024        1.5473272954       -0.9618337862
  H         3.7113571103        1.4671620017       -0.6761987162
  H         2.4023338037        2.3064158772       -0.3896311739
  O        -1.9400223599       -1.1724777746        2.3825893388
  H        -1.9417136155       -2.1271948968        2.6824991011
  H        -2.7922899605       -0.8291234186        2.7287277301
  O         2.7225305899       -8.8810984836        1.7624048864
  H         3.0898977542       -8.5072355547        0.9466762218
  H         2.7249139934       -8.2227673948        2.4984495324
  O         1.1973794938       -3.0586410604       -3.1475721124
  H         0.4503599520       -3.2730238189       -2.5482150647
  H         1.3066157757       -3.8913080017       -3.6669071437
  O        -6.1950517379        3.8792584320        0.3426669404
  H        -5.9059844677        4.0598222504       -0.5610737383
  H        -6.6944529740        4.6235820478        0.6583614962
  O         2.5656683441       -4.7825420605       -7.3989316878
  H         1.6363347337       -4.8037416596       -7.1700105060
  H         2.4765007088       -4.5446400691       -8.3472277284
  O         0.2095336614        2.9962132231       -2.8610257200
  H        -0.0880439427        3.1735726661       -3.7524093217
  H         0.1547087036        3.8904670064       -2.4499735694
  O        -4.0025424641       -5.5824540060        3.3454786492
  H        -3.1587754831       -5.1580428160        3.0758960897
  H        -3.8992100626       -6.4942662673        3.0261057400
  O         3.0725714429        5.0508683203        4.1095895844
  H         2.9267659975        5.8372778681        4.6577648333
  H         3.1422187149        4.2404311425        4.6167538185
  O        -2.9901130500        1.9380642909       -4.7694791854
  H        -2.9946912624        1.0715391164       -4.3074513112
  H        -3.0289082338        2.6256714024       -4.0891656190
  O         2.4941583271        0.6876636799        2.1286606331
  H         2.3007269749        1.5270730010        1.6786200213
  H         2.3262201205       -0.0334047715        1.5163769455
  O        -7.0311242710        0.5084171391        2.5646112794
  H        -7.7983871314        0.7110384953        3.0532721676
  H        -7.1186897333       -0.3930334132        2.1554869640
  O        -0.4371972714        0.9362543702        2.8634259017
  H         0.4892367401        0.7548110854        3.0420791774
  H        -0.9364970889        0.0980376534        2.7685213312
  O        -1.8597347845        4.5176174124       -0.4193364299
  H        -1.1902643639        4.2395337643        0.2935465018
  H        -2.6008289298        4.7030909064        0.1636306613
  O        -0.4346803839       -1.1082218643       -4.4066690755
  H         0.2803671481       -1.5004952508       -3.8719742315
  H        -0.0644376230       -0.3605447468       -4.8883005613
  O        -5.9354209817        3.0774970295       -2.4211121582
  H        -5.0418006462        3.2636989978       -2.6620176959
  H        -5.9956146833        2.0630486781       -2.4388137495
  O         5.7224169330       -1.3869871042       -0.8125319842
  H         6.4386523065       -1.5426895104       -1.4876394725
  H         5.7610364485       -0.4036101795       -0.6649272801
  O        -1.9408272002        1.3736501249       -2.0299087301
  H        -1.2078256292        1.9103878875       -2.4253290858
  H        -1.6014808310        0.7754369688       -1.3275420518
  O         0.2035595076        5.8989543869       -1.7350571147
  H        -0.0840309934        6.2153009764       -2.6187581906
  H        -0.6721719493        5.5972986352       -1.3471418817
  O         6.7738075100       -1.2968050875        5.6356451911
  H         7.2389747919       -2.0467263800        6.1540826662
  H         6.7198530007       -0.5698113333        6.2397096379
  O        -1.7733930077       -5.2366682416       -3.6237174166
  H        -1.5757326250       -5.8579794209       -4.4105153725
  H        -2.6866181766       -5.4945809127       -3.3484992397
  O        -4.8232343051       -1.9986798145       -2.7859139411
  H        -4.8942825249       -2.6902218726       -3.5530967490
  H        -4.1874271338       -1.3917132333       -3.1855846842
  O         2.7809087040        4.8081307519       -0.9050565497
  H         1.8957759951        5.1170880528       -1.1671012601
  H         3.3829219396        4.8714974425       -1.6828590404
  O        -4.3704611687       -3.1956586182       -5.4278301780
  H        -3.4041067794       -3.0692065717       -5.3097862256
  H        -4.4147229581       -4.1214606426       -5.6672815943
  O         0.1113323437        4.0970230947        1.3268751760
  H        -0.1296669541        4.2934849906        2.2685032892
  H         1.0997173749        4.0611698258        1.4030026064
  O        -1.7017231703       -3.3226864758       -5.4223694533
  H        -1.6996723094       -3.9820070775       -4.6697254488
  H        -1.1845740808       -2.5401360112       -5.1523740654
  O        -7.5736617613       -2.0600666290        1.7698529353
  H        -7.1774759895       -2.0661543959        0.8901860739
  H        -6.9793275840       -2.6214730792        2.2784789509
  O         2.6854033210        4.3032387363       -4.5852522614
  H         3.3219919346        4.4026502502       -3.8723354800
  H         2.0864181337        3.6202073496       -4.2134585622
  O         2.6824603963        1.2796441785       -3.6086015665
  H         2.4399493378        1.3172218809       -2.6997001403
  H         3.5882388270        0.9528879187       -3.6325609901
  O        -1.3545779019        5.4909637817        6.5793320192
  H        -1.0847858429        4.5606022188        6.7125980014
  H        -2.3553102656        5.5891751011        6.4213729459
  O         0.1628511350       -4.9255994957        0.9237289154
  H         0.2610890583       -5.8831653211        0.6122699599
  H        -0.0882386035       -4.4222940519        0.1120451956
  O         6.3472155164        4.4910520424        6.6376811612
  H         5.4215482582        4.7395316346        6.8036192626
  H         6.3821686746        4.4934105957        5.6107499724
  O        -0.2484273255       -4.9026494783        5.2071111924
  H        -0.6620868909       -5.6354089355        5.7016200208
  H        -0.4299491374       -4.2722052676        5.9025597160
  O        -3.3949875864       -3.8854124422       -0.9416649491
  H        -3.9482097337       -3.9709783714       -0.1156008121
  H        -3.9479163992       -3.2767986143       -1.5393739889
