       6
 i =       25, time =        5.000, E =       -34.4494936253
  O         2.5163878352        4.1928872733        4.3341114056
  H         2.0459597596        4.7187468834        3.6462724883
  H         2.1266581440        3.3106101019        4.1560646464
  O         5.4455155955        4.2328932992        3.6520076065
  H         6.0679073711        4.5085858596        4.3498972552
  H         4.5577311341        4.2186031171        4.0980388240
