     192
 i =     2000, time =     3000.000, E =     -1100.0717636980
  O         5.5967736118       -5.1881524119        4.4485506673
  H         6.4187712062       -5.2298328850        3.9061401434
  H         5.7272958075       -4.3382569410        4.8416244500
  O        -4.0271092461        2.8259499875        5.0193811343
  H        -4.2311153956        2.4155661251        4.1575516906
  H        -3.1446779587        2.3914326120        5.3014265967
  O         4.6621062863        1.5763697991        4.3909229521
  H         4.1515161983        2.3823263203        4.6719501619
  H         5.4529055806        2.0064207428        3.9838584773
  O        -2.3035102541       -0.0269717192       -2.9055399800
  H        -1.9271334974        0.5026808141       -2.1340194367
  H        -1.5231774864       -0.1789544445       -3.4006826840
  O        -3.8261315333        5.5447159447        5.8855424713
  H        -4.0206204956        4.6256144203        5.5220945519
  H        -3.8077148203        6.1063859676        5.1003184543
  O         7.6389778938        1.3377357972        2.6922553401
  H         7.5190588570        0.3736550566        2.6953435023
  H         7.4263101684        1.7058215758        1.8239709846
  O         4.2651682890       -5.9172662759       -0.3060069181
  H         3.6316130537       -5.3366899569        0.1512669809
  H         4.2990101630       -5.4391819579       -1.1699596564
  O        -0.8289092244       -3.1336218492       -0.9690244082
  H        -1.7850635977       -3.2318955613       -0.9622318037
  H        -0.7753980109       -2.1933857861       -0.7877225619
  O         3.8315862105       -2.5828980621        3.3779301854
  H         4.0482275375       -3.4779444491        3.6353756597
  H         3.3913180827       -2.8397980992        2.5848053176
  O         2.9330465447        3.3937045505        5.3689318060
  H         2.1844352537        2.7755771508        5.4967532048
  H         2.7979126168        3.8965327545        6.2198298368
  O         4.5881425569       -4.1588225968       -2.4046792154
  H         4.5156205533       -4.2515799104       -3.4143385142
  H         5.3470692619       -3.6305461036       -2.1735273021
  O         2.8376440591       -3.8349168400        1.0495280560
  H         1.8947382026       -3.8887415750        1.4280567309
  H         2.6280644707       -3.2457790565        0.2781063924
  O         1.6951944940       -5.4147313239       -4.8863413604
  H         1.7073976398       -6.3636301726       -4.7598335937
  H         1.1908663890       -5.2582773466       -5.7558347427
  O         4.6489380515        4.9037036067       -3.2297249834
  H         5.0521670451        4.0961684521       -2.7512806688
  H         5.2824180858        5.2661582735       -3.8502449504
  O         1.8085188204       -0.7892644188        4.3413853923
  H         2.5178944700       -1.4941253281        4.1085044738
  H         1.8523083889       -0.1756532662        3.5515850577
  O        -1.3591655164        2.3586836315        6.2121433677
  H        -0.4813709442        1.9531246075        6.1686262413
  H        -1.9343103612        1.7495425056        6.7184559228
  O        -0.7692421277       -1.8900728253        3.4205799615
  H        -0.4108266619       -2.4062267005        2.6194442186
  H         0.0711873196       -1.7279610452        3.8881720414
  O        -2.2862125199        4.2357382485        3.0426569011
  H        -1.7374347550        3.5135502874        2.6979760008
  H        -2.8799851247        3.7989820245        3.6193543809
  O         1.0087018311        1.0677418233       -6.2279319058
  H         1.3939074820        0.4089757632       -6.8401100232
  H         1.6065672293        1.2603611667       -5.4646210682
  O        -0.3855720641       -0.1989589396       -0.5353336885
  H        -1.0025701605        0.0081345887        0.1714187264
  H         0.5648938315        0.0556464526       -0.2723746427
  O        -3.7963817457        3.3284026707       -3.3809286744
  H        -3.8837190719        4.2955649065       -3.3209122116
  H        -2.8675596104        3.1971697676       -3.2075763568
  O         5.5984528008        3.5986454107        2.2373048887
  H         5.1979876352        2.9148481084        1.6244328515
  H         4.7866235263        4.1085431784        2.5336902725
  O         4.8337047084        0.4690742049       -3.7012427315
  H         5.2405288521        0.3773164986       -4.5841972787
  H         5.0886286683       -0.2883427426       -3.2418355002
  O        -3.9903990827        6.0786318604       -2.6079062562
  H        -4.3791064078        6.0702781102       -1.6961711526
  H        -4.6989380098        6.2073901361       -3.2626618322
  O         6.0454949207       -0.1699346337        0.2262190253
  H         6.0745162300       -0.4178311830        1.1883055669
  H         6.8106246766        0.3850554913        0.0268976383
  O         2.3367708248        0.1207805504       -0.5514482335
  H         3.1606869497        0.5167058232       -0.1786150612
  H         2.6092430565       -0.7621489656       -0.8901170540
  O        -5.4068781762       -6.0526715193       -0.1716968219
  H        -5.1180419007       -6.7200815038        0.4971340688
  H        -6.3633091168       -6.1130613467       -0.2619521212
  O        -4.7642210879        4.9085078192        1.9680291070
  H        -5.5278667813        4.2597573963        1.9783179293
  H        -3.8957183536        4.5264089115        1.8937984991
  O         6.3171826847        0.0907662753       -6.0618315697
  H         7.2731164028        0.2332942770       -5.7218067293
  H         6.2451026138        0.8152612079       -6.6471113277
  O         2.7119011468       -2.4299102081       -1.3664706979
  H         3.4733118100       -2.8606335454       -1.7971006611
  H         2.0802715180       -2.2953071411       -2.0959716112
  O         4.3488350325        1.9819014263        0.2788248414
  H         5.0495597620        1.5944314230       -0.2860032036
  H         3.8188458742        2.5631303259       -0.3160987045
  O        -1.8937159694        0.1084529426        2.0631831444
  H        -1.5248718558       -0.4064506662        2.7957803299
  H        -2.7365580098        0.4625490929        2.3327507975
  O         1.5513564238       -7.7116607113        1.9014522665
  H         1.7272846632       -7.9917885719        0.9343056840
  H         2.4274234140       -7.5912087791        2.2581904638
  O         0.7124692147       -3.1170521538       -3.1670786706
  H         0.1460654862       -3.2438324097       -2.3450389456
  H         0.9831953054       -3.9483546439       -3.5890989382
  O        -4.6754398461        1.8084192188       -0.1584132337
  H        -3.7633922738        2.0800380672       -0.4266808746
  H        -5.3009220430        2.2932950630       -0.7180724922
  O         4.2820025960       -4.4906270285       -5.0727385419
  H         3.3875097034       -4.8252895227       -5.1870830958
  H         4.4048739756       -3.8180679754       -5.7835177610
  O        -0.3942390897        3.1585852107       -2.6419250626
  H        -0.2750417551        2.7467082647       -3.4902393970
  H        -0.3156732431        4.1195335443       -2.8191822301
  O        -4.0010375081       -5.5865284318        3.4428586824
  H        -3.7025632295       -4.6366729430        3.3738119677
  H        -4.3124533863       -6.0266424107        2.6050632215
  O         3.7988143282        5.2817004178        3.3858953265
  H         4.1640375146        6.1282239525        3.7156436887
  H         3.5026130200        4.7036572292        4.0980438550
  O        -3.3845426856        1.0403010744       -5.1496417107
  H        -3.0300100555        0.6153752340       -4.3159456137
  H        -3.7940231446        1.8384179987       -4.8093164274
  O         2.8197538350        0.8574572464        2.4274464184
  H         3.0601719048        1.1451067486        1.5588214156
  H         3.6975382144        0.9258689536        2.9468621530
  O        -5.4226329174       -1.2187777371        2.8666531416
  H        -5.9113701328       -1.6177695320        3.5831174666
  H        -4.7419290534       -1.9614758911        2.7837881404
  O        -0.2414745070        2.7826312167        2.0164462105
  H         0.4187025837        3.4652113848        2.0633520758
  H         0.2105677393        1.8978220936        2.1360263751
  O        -1.9890917654        6.2041830187        0.3394197489
  H        -1.7281064174        6.4963167368        1.1918454025
  H        -2.3818027387        6.9743951848       -0.1284546200
  O        -0.1625088734       -0.9549061244       -4.5675876955
  H         0.3206720029       -1.6098500757       -4.0263361145
  H         0.4743542422       -0.6295092344       -5.1997122779
  O        -6.4798260577        2.5258615300       -2.3996813051
  H        -5.7577912522        2.8114886105       -2.9622473044
  H        -6.7676235822        1.7109970418       -2.8595356939
  O         6.0117025009       -1.5387108334       -2.1184879741
  H         6.9541252768       -1.7765911424       -2.1949447936
  H         5.9124353469       -1.1726215282       -1.2169896169
  O        -1.9898453055        2.2179441916       -0.7298543677
  H        -1.3583302161        2.5101882092       -1.4054852155
  H        -1.5766781799        2.4026256939        0.1317209978
  O        -0.0669476672        5.6481598561       -2.0048719093
  H        -0.3951120845        6.4273889462       -2.4984433521
  H        -0.6696070465        5.6752567070       -1.1881816535
  O         6.0662716819       -2.5027159815        5.7495302076
  H         6.9311263478       -2.7211197714        6.1348280454
  H         6.0617093348       -1.5458962266        5.8894103201
  O        -1.7230783182       -5.3656743864       -3.7857060354
  H        -1.4948215773       -6.1526938991       -4.2952498056
  H        -2.5082645111       -5.6363840011       -3.2482274698
  O        -3.7638318295       -2.1715581676       -2.3966610902
  H        -4.0735921138       -2.6794218505       -3.1677660027
  H        -3.2080761874       -1.4265432520       -2.7322386522
  O         2.6990287809        3.9936544007       -0.9755093932
  H         1.8575075782        4.0017257096       -1.4271583022
  H         3.1742521318        4.8282922087       -1.1641602827
  O        -4.1510059072       -3.3516665299       -4.9527663710
  H        -3.1822861216       -3.4079004461       -5.1208865368
  H        -4.4397187515       -4.2829574244       -4.8851415552
  O        -0.6820111717        6.3035519103        2.8951236554
  H        -1.3742332803        5.5764117971        3.1318198842
  H         0.1584785765        5.8364382854        2.5435195442
  O        -1.4798990760       -3.2582131379       -5.4543047980
  H        -1.1428329063       -3.8010933184       -4.6726021189
  H        -1.1233814900       -2.3677766735       -5.4462899845
  O        -3.1995343873       -2.8823727554        2.8671490113
  H        -2.2772268071       -2.6072861733        3.1701062646
  H        -3.1387635040       -2.8986706819        1.9008802860
  O         2.4646736985        4.1826385844       -4.4820394568
  H         3.2707571745        4.5477298904       -4.0975674690
  H         2.3253559846        3.3581988722       -4.0337162261
  O         2.2039684274        1.2472107871       -3.5290857073
  H         1.9468170945        0.9615734209       -2.6213112039
  H         3.1654775810        1.2857356823       -3.3806577342
  O        -1.4283835542        4.8746534689        7.0725705969
  H        -1.3222501984        3.8932148571        6.9155665451
  H        -2.2475413337        5.1105065849        6.5411711346
  O         0.1750545881       -3.5829288654        1.5950329339
  H        -0.0453358639       -4.4231637344        2.0275108525
  H        -0.1515403310       -3.6269120874        0.6697566901
  O         6.7606475342        6.3978428584        7.6337480650
  H         6.0215607773        6.8081276314        7.1295090734
  H         7.4625859685        5.9882978239        6.9787343718
  O         0.3251466399       -4.6493125898        5.5056302900
  H        -0.0192166544       -5.3475330190        4.9726938583
  H        -0.4906068431       -4.0951043951        5.6497225542
  O        -3.7239580129       -3.7334363213        0.0851539189
  H        -4.5171130658       -4.3096351179        0.0629582338
  H        -3.7972723443       -3.1131016087       -0.7196320139
