       6
 i =      900, time =      180.000, E =       -34.4488424262
  O         2.4258322666        4.2199288681        3.4740202271
  H         1.7883092660        4.3136625183        4.1989465903
  H         2.0992731316        3.5730082998        2.8538707684
  O         5.4249636990        4.2367162605        4.5526366026
  H         5.0358615259        3.5952767043        5.1687854432
  H         4.6751865405        4.4287080308        3.9745504726
