     192
 i =     3500, time =     5250.000, E =     -1100.0472324868
  O         6.3382131278       -3.8277731177        3.2287764698
  H         7.2161369079       -4.2242170890        3.2965253829
  H         6.3631935046       -3.2719690830        4.0328570045
  O        -2.8950059427        1.9400116400        4.8323785028
  H        -3.4361772160        1.2510940171        4.3914122741
  H        -3.2956379254        2.0232896163        5.7041468932
  O         7.3672935971        3.3819584766        4.8659278265
  H         6.7099665548        3.7620221840        4.3058864618
  H         8.2649079538        3.1435930302        4.5875748038
  O        -2.6157679939        0.1396571482       -2.8305913569
  H        -2.6241130168        0.6949484283       -2.0318499387
  H        -1.7169678765       -0.2505834449       -2.9331937636
  O        -4.1430597832        6.5966779067        6.0882324834
  H        -4.8610506048        6.0334333727        6.3298719998
  H        -4.0669403156        6.6116520337        5.1258985839
  O         7.8918641441       -0.0872933048        3.8781738028
  H         7.5472573130       -0.8413234700        4.4479106251
  H         7.0310954744        0.2873230571        3.6662012021
  O         4.6532644051       -5.3886673896       -0.0097940193
  H         4.2164190694       -4.6402987827        0.4269441584
  H         4.0134901161       -5.8971179745       -0.5184081632
  O        -0.9603843406       -3.6711938362       -1.7463072731
  H        -1.8434883791       -4.0842859522       -1.8776006805
  H        -1.1236425668       -2.8718713036       -1.2661904755
  O         3.1616725110       -2.2777953805        5.3830678961
  H         4.1008874340       -2.4048257760        5.2272817405
  H         2.8805556327       -3.0835918206        4.9810731787
  O         3.8148439176        2.3866377996        5.3916313260
  H         3.1487481812        1.6942001200        5.2743009224
  H         3.5718709556        3.1800821378        5.7948995271
  O         5.7755466426       -4.4991600015       -3.2803864560
  H         5.8482453609       -4.2724814933       -2.3176980496
  H         4.8620853771       -4.1387074895       -3.4856228313
  O         2.9233920463       -3.7032131176        2.3385353585
  H         2.0352117819       -3.6162787364        1.9409694638
  H         3.5035632911       -2.9237216964        2.2290751475
  O         1.4554607651       -5.9190203088       -4.3952583714
  H         1.8243579254       -6.7919918622       -4.3863939930
  H         1.4029092098       -5.8268421464       -5.3787337488
  O         4.6592852115        5.2604149458       -3.0146521318
  H         5.2873918393        4.4966065433       -2.7392213427
  H         5.2016280311        6.0656416638       -3.2011974021
  O         2.0153949008        0.1737455709        4.9383773121
  H         2.5029599014       -0.6605864859        5.0001757189
  H         1.9629668032        0.5087166898        4.0143927610
  O        -1.0539492925        3.1322632890        7.1876671824
  H        -0.5580640204        2.2654153719        7.0572996742
  H        -1.9635034840        2.7580776041        7.1189586166
  O        -1.1362619625       -3.7591717191        3.4643563203
  H        -0.6303285490       -3.9714953780        2.6265419130
  H        -0.5545932085       -4.0227817094        4.1763542430
  O        -1.6597711577        4.0078008997        2.9526967977
  H        -1.4981968919        3.0437173748        3.1627145819
  H        -1.6944739035        4.4399410255        3.8174324505
  O         0.5851466034        0.8692310428       -5.1130506450
  H         0.9940992645        0.4991943936       -5.9452170368
  H         1.3490370830        1.0647417318       -4.5220914456
  O        -0.8193002915       -1.7766328554        0.1725819132
  H        -1.2725225040       -1.6245218376        1.0286648693
  H         0.0117236585       -1.3536140258        0.2233335451
  O        -3.7642452602        3.6182762974       -2.4729775068
  H        -3.7157862153        4.5721204071       -2.8207867014
  H        -3.1096241377        3.6087821546       -1.7588888930
  O         6.1270614231        5.2702162734        1.2060876024
  H         5.3451054123        5.8720658274        0.9664787447
  H         5.8498688606        4.8742934625        2.0228025330
  O         5.4339546084        0.4842139491       -3.3672126788
  H         5.5932885705        0.0788217268       -4.2416918242
  H         5.1407519682       -0.2634779519       -2.7183281842
  O        -4.0064647902        6.0926307266       -3.1883516554
  H        -4.0475521099        6.9697524973       -2.7214128054
  H        -4.6699536010        6.1131984993       -3.8923945964
  O         5.1672162596        1.0036759229        0.1832804449
  H         4.9855592259        0.7084097763        1.0584524424
  H         5.9367794186        1.6346449339        0.2267842387
  O         1.7055448105       -0.1780685947        0.1372641786
  H         1.8254893707        0.4292056748       -0.6023191943
  H         2.1321376016       -1.0119337096       -0.1843498452
  O        -4.8341015486       -4.5137639618        0.7505666138
  H        -4.7870775493       -3.9503018950        1.5030935892
  H        -5.3518712497       -5.2692048246        1.0027692269
  O        -3.8078294391        5.2098476690        1.9673529960
  H        -4.5168076972        4.9749159117        1.4249881428
  H        -3.3534612770        4.3409557227        2.2238608273
  O         5.9015447225        0.4879865491       -6.0125632253
  H         6.7899451585        0.8712807222       -5.9680805069
  H         5.3547089899        1.2765220201       -6.2563323384
  O         2.8484639162       -2.2945925312       -0.8052892259
  H         3.6186465699       -1.9495016842       -1.3047222887
  H         2.4152039772       -2.9809953820       -1.3523531412
  O         3.0663674389        2.3130221039       -1.2019169253
  H         3.8077878240        1.9891711282       -0.6405142202
  H         3.0310633372        3.2557271837       -1.2352851496
  O        -2.0063619245       -1.0210886911        2.4989557834
  H        -1.8457967287       -1.7584439306        3.1361200917
  H        -2.8949545097       -0.6792107072        2.4892432405
  O         2.8872831201       -8.5277534539        1.4382829448
  H         2.9749362217       -8.0446656184        0.6152507946
  H         3.6218297942       -8.3027920827        1.9644099635
  O         1.2239134550       -3.3740015767       -3.1617325464
  H         0.4080863080       -3.7878918158       -2.7700675775
  H         1.5378740597       -4.0131402871       -3.8248112471
  O        -5.1851336108        2.7080028998        0.5700982199
  H        -4.4920517449        2.3918922043       -0.0533115776
  H        -5.5158430515        3.4874519215        0.2018827720
  O         2.9280290736       -5.9567293490       -8.5564491583
  H         2.0939170440       -5.8524425168       -8.0612221063
  H         2.9381338742       -5.1017294106       -9.0189463165
  O        -0.3316069128        2.8885135486       -2.1859453860
  H        -0.4025404086        2.6200674261       -3.1053581836
  H        -0.1740308193        3.8228824962       -2.1705701205
  O        -3.6155894555       -5.0591535309        3.5136849434
  H        -2.8063271861       -4.4819715933        3.5584107080
  H        -3.4870631568       -5.6499105296        2.7471566719
  O         4.9172283695        4.4162913091        3.7660090586
  H         4.4062817521        5.1817901413        4.0421626430
  H         4.5854377500        3.6105508700        4.1718540199
  O        -3.5745550933        1.8598171231       -4.8612556335
  H        -3.2609635518        1.0630209009       -4.3768325153
  H        -3.5713966990        2.4954799859       -4.1718459600
  O         1.9249398561        1.4309489144        2.2930907426
  H         2.2694845666        2.3176905500        2.0764521257
  H         1.9800971426        0.9222483584        1.4148330650
  O        -7.2558332653        0.5154737946        3.0219649330
  H        -8.1317331197        0.6689737586        3.3257755606
  H        -7.3263251346       -0.3929135593        2.5754899360
  O        -0.8833241816        1.4166955094        2.0221953947
  H         0.1238834660        1.3826378571        1.8948063912
  H        -1.0702074533        0.5351616357        2.4043149434
  O        -2.0831904007        4.8425749642       -0.5515305412
  H        -1.8680432233        3.9094894704       -0.3466824011
  H        -2.2819945118        5.2622568245        0.3350278975
  O        -0.3606988233       -1.1029264953       -3.5883943451
  H         0.2416801297       -1.7905025068       -3.3990604455
  H         0.0325953728       -0.5085924831       -4.2764845497
  O        -6.3053755354        3.1613704846       -2.3467577082
  H        -5.3214315438        3.2668479170       -2.3894371670
  H        -6.4812066099        2.2497623416       -2.6541313501
  O         5.5991905508       -1.3728849291       -1.1607949587
  H         6.5276268770       -1.4026786656       -1.4965168995
  H         5.5808553523       -0.5328925850       -0.6668435990
  O        -2.3144250025        1.8483283189       -0.5274674260
  H        -1.5143136223        2.0483513537       -1.1069881805
  H        -1.9306351484        1.7433869598        0.3259297826
  O         0.0658574818        5.5504274098       -1.9391802216
  H        -0.1854674780        6.3474490549       -2.4903710267
  H        -0.6477386666        5.4444985058       -1.3089376059
  O         6.4409914100       -2.3818499104        5.7557204818
  H         7.0669101414       -2.6319742874        6.3913730706
  H         6.0687626467       -1.4800404331        6.0321732824
  O        -1.5732462381       -5.8315027474       -3.9446234497
  H        -1.0463154207       -6.3058919349       -4.5572577394
  H        -2.4854383278       -6.2359423949       -3.8424638342
  O        -4.3676226313       -1.8612259468       -2.1883748099
  H        -4.4435028046       -2.1650002986       -3.1009058849
  H        -3.8706370261       -1.0137941149       -2.2468476393
  O         2.7688099276        5.2145413386       -1.1378541848
  H         1.8633937007        5.4015643972       -1.4807733207
  H         3.3200994163        5.4029595519       -1.9160963817
  O        -4.1907665045       -2.9644708206       -4.8591773988
  H        -3.2783056340       -2.8999788112       -5.1949762211
  H        -4.3264234220       -3.9166643883       -4.7566374467
  O         0.3191834455        5.2150355484        1.4502095754
  H        -0.4381001172        4.8792437455        1.9423875775
  H         1.0782947485        4.5858377739        1.6024964890
  O        -1.3570534086       -3.5185260166       -5.2686687318
  H        -1.6511626557       -4.2492560945       -4.6323637785
  H        -0.9321804055       -2.8316350237       -4.7100454083
  O        -7.3548703132       -1.9112365014        1.7778233931
  H        -7.1189664335       -1.9168571790        0.8007226927
  H        -6.7130100576       -2.5588995356        2.1159027463
  O         2.9212507915        4.2309632799       -5.0176527011
  H         3.5527489023        4.6577808341       -4.3991950800
  H         2.7200730979        3.4542685302       -4.4971517936
  O         2.6506592573        1.6772685399       -3.7098074465
  H         2.7650864134        1.9778273859       -2.8008327309
  H         3.5217653495        1.2114890343       -3.8079277159
  O        -1.5090869489        5.1468803623        5.4670083906
  H        -1.2966152932        4.3475604122        5.9904300766
  H        -2.4114045835        5.3742851807        5.7668738418
  O         0.2210996483       -4.1874950639        1.1497162989
  H         0.2811558285       -5.1229007873        0.9335156116
  H        -0.1164802252       -3.7677782717        0.3495836019
  O         6.7633997455        4.5990282503        7.4902785471
  H         5.9112148256        4.3116315864        7.8919999445
  H         6.6993303797        4.1196182173        6.6262420936
  O         0.3619396301       -5.2831601188        5.3690836543
  H        -0.2125454511       -6.0407504325        5.3561586851
  H        -0.1159289537       -4.6677291108        5.9998735904
  O        -3.6960394016       -4.2914505192       -1.6324187961
  H        -4.0811421613       -4.5372833720       -0.7712678475
  H        -3.9106099048       -3.3569161993       -1.6583173073
