     192
 i =     6400, time =     9600.000, E =     -1100.0703403036
  O         6.0754717567       -3.2814285263        3.5688923147
  H         6.0244061871       -4.2143132627        3.4302607377
  H         6.8353160750       -3.0762839512        4.1656112344
  O        -4.4769747661        3.4227614095        5.7226320070
  H        -4.8503023788        2.7852299686        5.0647541452
  H        -4.6147844663        2.8665752555        6.5021669787
  O         6.6012250448        5.6121922809        5.4517692718
  H         5.7248433326        5.3879697507        5.0944908157
  H         7.0448532420        4.7161674628        5.5590483625
  O        -2.0168633645        0.2035184346       -3.6952687632
  H        -1.7181049077        0.5320847272       -2.8050981390
  H        -1.3185774483       -0.4689388476       -3.9108790303
  O        -3.7215480334        5.4108638403        3.8651354791
  H        -4.5656180969        5.7164142501        4.1690781846
  H        -3.5444015697        6.0808006153        3.1746876388
  O         7.6896963749       -0.1410273530        4.3809279147
  H         7.3559140144       -0.7909897044        4.9721321556
  H         7.1372472633       -0.3449254279        3.5828957142
  O         4.4549448121       -5.4568625488        0.5072176280
  H         4.1618451020       -4.5730509717        0.1747006841
  H         3.8721614966       -6.0525111998       -0.0094783594
  O        -0.9172927922       -2.2000563141       -1.1821644250
  H        -1.4733920513       -2.9984081655       -1.3021382525
  H        -1.5872254564       -1.5547429243       -0.9128030008
  O         3.2288261469       -3.1181061004        3.8160904564
  H         4.1986599636       -3.1276235532        3.9225433381
  H         3.0549642834       -2.7418530689        2.9259770611
  O         3.2361224179        2.7932175789        5.3970057228
  H         4.0521459233        2.2999238079        5.5994596439
  H         2.9711610637        3.1601446993        6.1924514795
  O         4.4122377668       -4.1581090646       -4.4313521249
  H         4.1505125527       -3.2542919363       -4.4736826681
  H         3.6308550187       -4.5612238822       -4.7675860930
  O         2.4881845198       -1.8248823321        1.3412213710
  H         1.6336987725       -2.3093374044        1.2656376707
  H         3.0108128325       -2.2080731504        0.6109143388
  O         2.1888413935       -5.5897571699       -5.1962560995
  H         2.2068689212       -6.4922009404       -4.8862183933
  H         2.1688491651       -5.6278300280       -6.1853375589
  O         4.9158253181        3.9307509228       -2.5041902550
  H         5.1957282453        3.0211656519       -2.4422792263
  H         5.7906524520        4.3379927597       -2.2481093335
  O         2.7940568265       -1.0698844071        5.5495925408
  H         2.9012545831       -1.8290361049        5.0147781364
  H         2.3764649357       -0.4027749821        4.9123492493
  O        -1.2000731479        1.8380027968        6.5451156334
  H        -1.5322585989        1.5049762955        5.6602895958
  H        -1.6658192464        1.3763782405        7.2462954195
  O        -1.6011847040       -3.1528739398        3.3779818313
  H        -1.0172082116       -3.2322208759        2.6162902553
  H        -1.1720679760       -3.8860185495        3.9343889507
  O        -3.7670206797        2.7117807389        3.1345013373
  H        -2.9223168733        2.4277553039        3.5469809042
  H        -3.7748995805        3.6651202535        3.4296174217
  O         2.4568141118       -1.7702461591       -4.2520277424
  H         2.6046839415       -1.5216536509       -5.1798459426
  H         3.0474449368       -1.2033874990       -3.7210170010
  O        -2.5089280216       -0.5314867044        0.2891795352
  H        -3.2933971449       -0.2161140184       -0.2181571364
  H        -2.8338231115       -0.5180808954        1.2396214083
  O        -3.3634395240        3.7950865799       -2.5929938091
  H        -3.9756149904        4.5285969009       -2.2527711498
  H        -2.9684314996        3.3467288430       -1.8319658538
  O         5.8579678793        6.5082690258        2.5910421822
  H         5.2099293272        7.0050239766        2.0807416516
  H         5.4257886590        6.0772675327        3.3496994514
  O         5.8361108493       -0.6759715711       -4.8083563858
  H         5.6045159754       -0.0555781747       -5.5286496708
  H         6.7603912136       -0.5281548895       -4.6694452898
  O        -5.2950827795        5.5067901712       -2.1597455784
  H        -5.3981206329        6.0238182341       -1.3279194260
  H        -5.2314645801        6.2081577031       -2.8587410596
  O         7.2851480622        0.7058862172       -0.0470316824
  H         7.7652841847        1.5615698319       -0.0802497984
  H         6.6448347674        0.8478722326       -0.7930305917
  O         2.4921992113        0.9483920292        1.5719927052
  H         1.9897252986        1.1201316375        0.7631568191
  H         2.6254561840       -0.0131077282        1.5582221640
  O        -5.1216615539       -5.0693472813       -0.0545538075
  H        -4.4901322558       -4.8820943747        0.6898967496
  H        -5.9946539627       -4.7626124448        0.1924871073
  O        -3.6660646288        3.4753504501        0.3813177692
  H        -4.5603219585        3.8801189252        0.4267331857
  H        -3.6150853106        3.2588632263        1.3296257941
  O         5.1179685565        0.9034386414       -6.8981402173
  H         5.8886383304        0.8328678322       -7.4778115585
  H         4.4603456488        0.2177273546       -7.0622543831
  O         4.3018263650       -2.6038862624       -0.7219944008
  H         5.2672654546       -2.4121169874       -0.9045770855
  H         3.8504281122       -3.0916813839       -1.4516196729
  O         1.6716583184        2.1084112648       -1.4199736595
  H         1.8928947372        3.0036384663       -1.1678519087
  H         1.3752272775        2.1041382415       -2.3126524771
  O        -2.5100666622       -0.7487580680        3.0999138956
  H        -2.2485943277       -1.7125453234        3.1092104850
  H        -3.2549985795       -0.7258007106        3.7406266381
  O         2.4428188334       -7.9701530004        1.7585395795
  H         3.0112587655       -8.3802861697        1.1155146977
  H         3.1061716236       -7.8203474302        2.4658098909
  O         1.9790910830       -3.3450577280       -2.1542848598
  H         2.0657278246       -3.1532398384       -3.1025473580
  H         1.6661681230       -2.5529193110       -1.7988754767
  O        -6.4335291347        4.2303170009        0.8546068905
  H        -6.6920130844        3.6335285611        1.5791547811
  H        -6.3729626383        5.0871623850        1.3636780905
  O         1.9905667493       -5.5283837468       -7.9115913446
  H         1.0393468364       -5.6275362700       -7.9113592667
  H         2.2318997800       -4.5931861629       -8.1343311135
  O         0.6476632683        2.7199316641       -3.9772852720
  H         0.3712750753        2.1539180628       -4.7990083481
  H         0.0153040288        3.4781656474       -3.9571869273
  O        -3.3422792291       -4.9147538675        2.0796718605
  H        -2.8216405604       -4.2974895767        2.5318598856
  H        -2.8598431426       -5.4832900423        1.4062528743
  O         3.9222465796        5.1582279735        4.3669811267
  H         3.1596694129        5.7790916422        4.2936586210
  H         3.6598012395        4.2843824654        4.6129140992
  O        -4.6992913589        1.7975170714       -4.2164808488
  H        -3.9592040685        1.1520097938       -4.0687565742
  H        -4.4053869170        2.5520778375       -3.6799082295
  O         1.5979972583        0.9746503032        4.0273588757
  H         1.9931799336        1.6659577453        4.5372785308
  H         2.1589958395        1.0038394798        3.1875557540
  O        -7.3069705349        2.2818648421        2.6720138366
  H        -8.2900025884        2.2598908385        2.6534481746
  H        -7.2617969701        1.3957073319        2.2552222477
  O        -1.2299507485        1.4076013483        3.8386245491
  H        -0.3152877300        1.4005117718        3.9858328121
  H        -1.5123026532        0.5775566690        3.3824502574
  O        -1.9969612475        5.9221841196        0.3135068218
  H        -1.0331273602        5.9929789522        0.5024194043
  H        -2.2974245333        5.0120804019        0.3274002816
  O        -0.3018780855       -1.8418275954       -3.8932037576
  H        -0.3758985117       -1.9201613385       -2.9560906156
  H         0.5576034992       -1.5339305842       -4.1106715344
  O        -6.6808808186        1.1885177209       -2.4118406893
  H        -5.9346226251        1.2086710060       -3.0476572300
  H        -7.2138919247        0.6137162502       -2.9227609996
  O         7.1089266633       -2.4605509095       -1.1784864875
  H         7.2884298464       -3.3919771588       -1.0176656819
  H         7.4021460428       -2.2133589598       -2.0902337900
  O        -1.3559164944        1.5188172455       -1.2536153071
  H        -0.5280442802        1.9167945595       -1.1100024483
  H        -1.5052551192        1.0705747631       -0.4271700679
  O         0.8538529408        6.3390485014       -2.1722978484
  H         1.1476452631        7.2463958450       -2.3965412881
  H         0.2030385962        5.9819553325       -2.7680577752
  O         7.3900759594       -2.5323559202        5.7768472588
  H         7.8290357517       -2.3258562057        6.6191172431
  H         6.4928171189       -2.6642396373        6.0253423101
  O        -1.0204292061       -7.5583748662       -3.8350537916
  H        -1.2154378018       -7.6042791721       -4.7991901670
  H        -1.8126455856       -7.8447636508       -3.3138849446
  O        -4.0874041349       -1.8186489124       -4.1149816018
  H        -3.6632879727       -2.6998976653       -4.0150526072
  H        -3.5002986714       -1.0340024722       -3.9012101295
  O         2.8599304960        4.8143129565       -0.9514316402
  H         2.4807161708        5.4207727791       -1.5999813243
  H         3.5448212139        4.3697551499       -1.4661868004
  O        -3.1393034647       -4.3389308152       -4.1370856031
  H        -2.3607971186       -4.6172731162       -4.6938543664
  H        -3.9004990089       -4.7902120616       -4.4842231658
  O         0.5436071372        6.6086024068        0.5521821108
  H         1.3667422665        6.1801196846        0.9558247732
  H         0.6569819594        6.5636477324       -0.3957681320
  O        -0.3300804750       -4.5306041978       -5.1562868338
  H         0.5978310865       -4.6860803398       -5.0343240717
  H        -0.4771974013       -3.6062109730       -5.0132209310
  O        -6.5387419176       -0.6055351703        1.9959201447
  H        -6.0712394309       -0.5415561175        1.1470223342
  H        -6.5571650644       -1.5732767929        2.1362346719
  O         2.6937949677        4.2133044498       -4.9057243802
  H         3.4146847916        4.2473106128       -4.2579331669
  H         1.9288181910        3.6838353403       -4.5528381004
  O         2.9576128556       -0.1094465796       -2.0974700413
  H         2.9395098210        0.8413124485       -1.8441096377
  H         3.3219992574       -0.7007536038       -1.4187347635
  O        -1.6348098161        4.6811384422        5.5511451054
  H        -1.7633680484        3.7340444993        5.7329837703
  H        -2.4526800759        4.8658362113        5.0720794891
  O         0.0961140818       -3.1232958952        1.0193155080
  H         0.1986968308       -4.0981421148        0.9008916605
  H        -0.2253493486       -2.6955416941        0.1249181144
  O         6.8459970613        6.8792661302        7.8725954714
  H         5.9952367652        7.3351523411        7.9312288526
  H         6.6172917628        6.3675406352        7.0781388667
  O        -0.5504719849       -5.4655958355        4.7341183206
  H        -0.9950486476       -6.3020640946        4.6814787852
  H        -0.6290149300       -5.0891448956        5.6695582135
  O        -2.4969140040       -4.5683415041       -1.4907954958
  H        -2.6104300318       -5.4017654423       -1.0272434750
  H        -2.8390025323       -4.6771484528       -2.3863937767
