       6
 i =        0, time =        0.000, E =       -34.4504806384
  O         2.5270000000        4.1865000000        4.3500000000
  H         2.0350000000        4.7115000000        3.7100000000
  H         2.1940000000        3.2885000000        4.2560000000
  O         5.4400000000        4.2345000000        3.6350000000
  H         5.9650000000        4.5745000000        4.3650000000
  H         4.5220000000        4.2535000000        3.9470000000
