       6
 i =      175, time =       35.000, E =       -34.4474831024
  O         2.4191808872        4.2170631876        4.2205136695
  H         2.6102730606        4.8512440806        3.5276800096
  H         2.0495713015        3.4389246772        3.8085605504
  O         5.4613228041        4.2456267729        3.7858760268
  H         6.2120175919        4.0703630241        4.3568286025
  H         4.6965694414        4.1391843990        4.3531985397
