     192
 i =     3800, time =     5700.000, E =     -1100.0718826850
  O         6.1653244425       -3.6083507534        4.1423793216
  H         6.7590190224       -4.3306769174        3.8427619011
  H         6.7500861952       -2.9097323109        4.6249717050
  O        -4.0413162353        2.5595641508        4.4751868279
  H        -3.9123523987        1.6036367329        4.1995407705
  H        -3.8479513020        2.5297759073        5.4303213417
  O         6.0049681959        4.1259720474        4.6999885923
  H         5.8057765976        4.6625682989        3.8821203039
  H         6.6019171982        3.4667851633        4.2332424711
  O        -2.4001466257       -0.1650784797       -3.5516212054
  H        -2.1178670401        0.2657712241       -2.7269889932
  H        -1.5656457281       -0.5104041946       -3.9038333879
  O        -4.2084179906        6.5166411237        6.2953132990
  H        -5.0033949428        6.0596399447        6.5758674662
  H        -4.3515595959        6.6105144413        5.3140285887
  O         8.3031713930       -0.0295076340        3.4300750534
  H         8.0747538306       -0.4149244207        4.3020847141
  H         7.5203930051       -0.0075624580        2.8713986455
  O         4.7107785200       -5.4563675536        0.0585553868
  H         4.2149565209       -4.5832419777       -0.1133109827
  H         4.0276063258       -6.1127082637       -0.2514507026
  O        -0.6004271034       -3.5031320439       -1.2404618077
  H        -1.4521644936       -3.9083188109       -0.9123248243
  H        -0.6875684443       -2.5779472555       -1.0841341019
  O         3.7516086762       -2.2657235141        5.3290529159
  H         4.4497163391       -2.7799918146        5.0071586808
  H         3.0457861030       -2.9279335638        5.5959187695
  O         3.8359240159        2.8014171550        5.9048966102
  H         3.4958503163        2.2466365686        5.1849201213
  H         3.1225325992        3.0916873524        6.4881582720
  O         5.3233424336       -5.4537977871       -3.2023558568
  H         4.8044066583       -4.8921342062       -2.5695468001
  H         4.9188357963       -5.4591557230       -4.0557214314
  O         2.6796418989       -3.8646034545        2.4873346908
  H         1.8757018224       -3.9825907164        1.9784029659
  H         3.3224519690       -3.2568889505        2.0970942038
  O         3.1193411846       -4.9533361740       -4.8486179568
  H         2.7576970756       -5.8963924596       -4.9460645378
  H         3.0503641394       -4.5485348986       -5.6786317871
  O         4.5784049202        4.4133098084       -2.9072777404
  H         5.3814549114        3.9309545313       -2.6864452115
  H         4.8089126725        5.3439996599       -2.9357537953
  O         3.5812971270        0.4681697016        4.2237631599
  H         3.8294648071       -0.4032810626        4.5784098745
  H         2.7986439774        0.4653834938        3.6735946402
  O        -0.5868250359        3.0447411145        6.2756898334
  H         0.1228061424        2.4283801194        6.0781904217
  H        -1.4183187956        2.5243265822        6.1776208005
  O        -1.7484951643       -3.9938334480        2.8376656878
  H        -1.1102636829       -4.2578989835        2.1607468418
  H        -1.2882664968       -4.2816061747        3.7050943441
  O        -1.9177914840        2.9746593816        2.7373279863
  H        -1.4471975304        2.0933215151        2.7744341311
  H        -2.5062369106        3.0187194496        3.5046645746
  O         1.4107732154        0.9722755872       -5.8731501160
  H         1.9623525815        0.6500489480       -6.6222635966
  H         2.1135390141        1.1560198325       -5.2518959118
  O        -0.6439422021       -0.9382137404       -0.0887216268
  H        -1.0285840419       -1.1264229405        0.7706343622
  H         0.3374589758       -0.7402206762        0.0719858129
  O        -3.5616311216        3.8586361685       -2.6240671562
  H        -3.8717974863        4.8487667224       -2.4573392556
  H        -2.9255121161        3.7556775898       -1.9172174126
  O         5.1385680891        5.7946497891        2.4633121136
  H         4.8851513122        6.5344600011        1.8708682695
  H         4.5798765648        5.8292865542        3.2843658949
  O         6.4515740478        0.6772373865       -3.7547857667
  H         6.6571227763        0.7437918312       -4.7294225220
  H         7.1832309434        0.1966277377       -3.3758659843
  O        -4.5067594861        6.3221872480       -2.3185413059
  H        -4.2986067099        7.1338191710       -1.7888918393
  H        -5.3114514316        6.5075712096       -2.8532210403
  O         5.1661782399        0.7749523528       -0.1361117840
  H         5.2250441446        0.5959537903        0.8303752329
  H         5.8528795499        1.4211220542       -0.4478747152
  O         2.1111973762       -0.1909453656        0.0624534416
  H         2.2462080803        0.4058621257       -0.7071842648
  H         2.5376552504       -1.0575859413       -0.0886370969
  O        -5.5987122647       -4.1167549337        0.5261256838
  H        -5.3609876679       -4.3847815858        1.3943909191
  H        -6.1565194527       -4.8939872499        0.2144333611
  O        -3.6912880376        4.9608677411        1.6631877065
  H        -4.5211069382        4.4576910382        1.4719959860
  H        -3.1191370239        4.2237979467        2.0201233387
  O         6.0274134631        1.0924690601       -6.4615757979
  H         6.6936169470        1.5412320617       -6.9825897605
  H         5.1663060293        1.6091410106       -6.5529615860
  O         3.3921575060       -3.2295497616       -0.6712013569
  H         4.2151998172       -2.7746430389       -0.9775103095
  H         2.8303001302       -3.2553042916       -1.4452236070
  O         3.1338556222        2.0944034188       -1.4930101526
  H         3.8061442676        1.6683531022       -0.9298111466
  H         2.7782534049        2.8313909483       -0.9714555869
  O        -2.0869568896       -1.3820380509        2.2606054444
  H        -1.9379804535       -2.2575502513        2.6667391861
  H        -2.9183725925       -0.9369565974        2.5845883113
  O         2.3879311673       -8.7834996712        2.1267130775
  H         2.8075330473       -8.3667493442        1.4218819423
  H         2.8147363819       -8.3723357843        2.9084697903
  O         1.7092388915       -3.4562435153       -2.8181876872
  H         0.8594888037       -3.7518733036       -2.5329487734
  H         2.0552775889       -4.0095472852       -3.5733882668
  O        -6.5578676894        3.6299081633        0.8687566646
  H        -6.7891884443        3.7429671625       -0.0661009345
  H        -6.9417235626        4.4337952285        1.2773258188
  O         2.3702327713       -4.9280250519       -7.4264999291
  H         1.4056270082       -4.8517392647       -7.4012766019
  H         2.5605233679       -4.4599501221       -8.2763029413
  O        -0.0632160972        3.0107472904       -3.2937086624
  H        -0.6357197959        2.8698815121       -4.0816057619
  H        -0.0876577911        3.9799682931       -3.1407723555
  O        -4.0959053693       -5.4915690680        3.5506109055
  H        -3.3159489653       -4.9406677818        3.2894673409
  H        -4.0566879939       -6.2727811960        2.9881426724
  O         3.1139813673        5.0432926109        4.3068428406
  H         2.8744087222        5.9346041119        4.7031945765
  H         3.3364410692        4.4641681173        5.0464187011
  O        -3.2072641851        2.1431980398       -5.2722954372
  H        -3.0792119520        1.2586033832       -4.9202750816
  H        -3.5375217693        2.6827821094       -4.5719179427
  O         1.5683575042        0.9275208764        2.4956509181
  H         1.7929359210        1.8428636024        2.2878718565
  H         1.9156133058        0.4393122169        1.7003655981
  O        -6.7043613416        0.1073685749        2.5041985671
  H        -7.4145533088        0.5330060538        3.0160463762
  H        -6.9305804236       -0.8190817735        2.4835177379
  O        -0.8689573683        0.5042903224        3.8225806509
  H         0.0264742983        0.5714677004        3.4890546203
  H        -1.2300602517       -0.2039369398        3.2542749413
  O        -1.7678087217        4.5487277774       -0.2763134304
  H        -1.2398550505        4.2441284397        0.4887383200
  H        -2.5757374061        4.8726402577        0.1169518646
  O         0.1572723795       -1.1074797504       -4.4917478319
  H         0.8151522971       -1.4854975632       -3.8904374860
  H         0.7064105543       -0.5253259770       -5.0502414130
  O        -5.9050041443        2.8476589261       -1.9874577390
  H        -4.9852301857        3.1748207121       -2.0901900381
  H        -5.9557662382        1.9203189145       -2.3823151058
  O         5.5810898876       -1.5858377236       -1.4084007736
  H         6.3221968705       -1.6892302455       -1.9974670845
  H         5.5245099362       -0.6421998142       -1.1455574506
  O        -1.8042055810        1.2720813425       -1.1890311979
  H        -1.0858989760        1.9286554194       -1.2131191610
  H        -1.3246469106        0.4800103576       -0.8294722198
  O         0.5009550215        5.5757392416       -1.8442854500
  H         0.0580213585        6.2875313595       -2.2970019479
  H        -0.1881251639        5.0653385092       -1.4132410579
  O         7.2736303463       -1.4101769106        5.4928788483
  H         7.4753814617       -1.9855378508        6.2328530512
  H         6.5515875009       -0.8495319411        5.6993896318
  O        -1.2323543655       -5.8213775808       -3.5278601020
  H        -1.2551893445       -6.3521247333       -4.3483955637
  H        -2.1235000571       -5.9036241303       -3.1349039862
  O        -4.5434130099       -1.8442994378       -2.9969124784
  H        -4.6596394818       -2.4592097816       -3.7353612560
  H        -3.6666142770       -1.4528105542       -3.1173738708
  O         2.9898330455        4.9451927221       -0.6524868912
  H         2.1704698466        5.3050690607       -0.9452565226
  H         3.3696515679        4.6431787614       -1.4376442357
  O        -4.2550720005       -3.4444928797       -5.2271530300
  H        -3.2696958764       -3.4441930912       -5.2059317417
  H        -4.3474463406       -4.3572108473       -5.5462489632
  O         0.1356479365        5.0869982611        1.8508897501
  H        -0.5140092091        4.7272836564        2.4688681375
  H         0.9578432765        4.5917713678        1.8194268478
  O        -1.5141472669       -3.5007307335       -4.8790466573
  H        -1.1400691187       -4.2081654308       -4.2506274436
  H        -0.9693066867       -2.7364397737       -4.7611309975
  O        -7.4115281871       -2.4039711553        2.0353717824
  H        -6.9544966655       -2.5426217819        1.2044178753
  H        -6.9669558747       -2.9291699073        2.7410003281
  O         2.2134897662        4.0776067080       -4.6762651462
  H         2.8873574664        3.9470979501       -4.0087155494
  H         1.3332909301        3.7360316622       -4.3930898082
  O         3.4079091260        0.8344955123       -3.9188540956
  H         3.1851435050        1.2941159869       -3.0498928382
  H         4.3667405766        0.6832515964       -3.8198765825
  O        -1.6059916126        5.6579429367        6.3500205307
  H        -1.4203398369        4.6666346331        6.1503998847
  H        -2.5354962295        5.7612077876        6.0295731643
  O         0.4846944570       -4.6427493821        1.1906725211
  H         0.5290701986       -5.5915851650        1.4944604944
  H         0.3192987254       -4.6204889513        0.2375954574
  O         5.6553261481        5.3548795169        7.1834421632
  H         5.3275138200        4.8359167322        7.9230545863
  H         5.7732726791        4.7695248770        6.3751113968
  O        -0.5209968986       -4.6789191826        5.1878505996
  H        -0.7357680010       -5.6158857595        5.3913380628
  H        -0.7698622735       -4.2814036260        6.0687416670
  O        -3.5007188030       -4.0880630691       -1.1536984223
  H        -4.0959729086       -4.1258899303       -0.3605046218
  H        -3.8065775138       -3.2545543787       -1.6343905099
