6
Properties=species:S:1:pos:R:3 i=0 time=0.0 E=-34.4504806384 pbc="F F F"
O       0.89483482       4.80747147       4.35000000 
H       0.24973548       5.12611836       3.71000000 
H       0.89860320       3.84972474       4.25600000 
O       3.60522100       5.87596560       3.63500000 
H       3.97727687       6.37875724       4.36500000 
H       2.73908127       5.57119198       3.94700000 
