6
Properties=species:S:1:pos:R:3 i=0 time=0.0 E=-34.4504806384 pbc="F F F"
O       5.76475339      -1.85075748       2.48542277 
H       5.64872566      -2.33252421       1.65975493 
H       5.15496473      -1.10780904       2.43731450 
O       4.98072382      -3.61898792       4.77840266 
H       5.70980568      -3.71916266       5.39689248 
H       5.31607501      -3.04018582       4.07629390 
