6
Properties=species:S:1:pos:R:3 i=0 time=0.0 E=-34.4504806384 pbc="F F F"
O      -2.48914708       4.20911606       4.35000000 
H      -3.18460312       4.02464411       3.71000000 
H      -1.85617056       3.49034369       4.25600000 
O      -1.15103626       6.79703654       3.63500000 
H      -1.20165769       7.42046454       4.36500000 
H      -1.60277900       5.99765335       3.94700000 
