       6
 i =      500, time =      100.000, E =       -34.4444110766
  O         2.7387682370        4.3570419912        3.2031997791
  H         2.1833495975        5.0446434378        3.6155663654
  H         2.8078790039        4.5403541634        2.2298994793
  O         5.8643233357        4.3402979731        4.9780217067
  H         5.5655561150        3.4136217384        5.0601083531
  H         5.0718149382        4.7624770661        4.7016729896