     192
 i =     5300, time =     7950.000, E =     -1100.0715873418
  O         6.4988452753       -3.5673406653        3.2072969968
  H         6.2691271779       -4.5131913438        3.1564155900
  H         6.9215730614       -3.4677204883        4.0518650720
  O        -4.9599437467        2.1823068272        5.6287284126
  H        -4.5882058585        1.4378117475        5.1306880006
  H        -4.6167598871        2.1431323022        6.5479399742
  O         6.5470676518        4.6721517630        5.8233931160
  H         5.6710562138        4.3972266337        6.0875932027
  H         7.1419884008        3.9130678060        5.7331701520
  O        -2.3884664448        0.3034925556       -3.9554621422
  H        -1.9855282894        0.6637732875       -3.1629536186
  H        -1.9551960558       -0.5410378203       -4.0401818309
  O        -3.8087459608        4.9199060542        3.6241262177
  H        -4.6141824616        5.1860228687        4.0552186799
  H        -3.4993779956        5.6581542359        3.0160233993
  O         8.1074788129        0.0235377646        4.1777198504
  H         7.7454523419       -0.7075197170        4.7294818121
  H         7.6345699941       -0.1158426184        3.3012227213
  O         4.5943227331       -5.2388280418        0.6552876517
  H         4.1525167647       -4.6102000312        0.0389514912
  H         4.0989262145       -5.9954304238        0.4030732223
  O        -1.0208801798       -1.8632601602       -1.2930511858
  H        -1.9302924403       -2.2316971064       -1.4392558096
  H        -1.1359660213       -1.0257094010       -0.8704438398
  O         3.5586511429       -2.8062684783        3.8576521252
  H         4.5342263731       -3.0609980691        3.6671269101
  H         3.1744645085       -2.5887932289        2.9729171209
  O         4.1850286253        4.0512058763        6.9089983199
  H         4.3176673313        3.0737318898        7.0227889180
  H         3.5023181545        4.1667657683        7.5576886453
  O         4.2926696620       -3.5238432490       -5.3091432956
  H         4.4103251503       -2.6948380131       -4.9525810944
  H         3.4436330695       -3.6127839467       -5.7930484053
  O         2.2422195946       -2.5773395681        1.4264421853
  H         1.4570298217       -3.1167382349        1.0862907990
  H         2.7746884171       -2.8786008904        0.6687497051
  O         1.2519332573       -5.3166817760       -4.6232675718
  H         1.8092503826       -6.0762444112       -4.3638082706
  H         1.6023788849       -4.9690811354       -5.4660180707
  O         4.3115350704        4.2924826903       -2.0610598611
  H         4.6684224282        3.3695636668       -2.0169533028
  H         5.1077407935        4.8697106205       -2.1770080422
  O         2.9947291849       -0.5657115416        5.5282380028
  H         3.3041445576       -1.4069597193        5.2677708029
  H         2.8134089729       -0.2639704449        4.6291809629
  O        -1.3556420745        2.2086564362        6.2512105634
  H        -0.9119230697        1.6064162723        5.6387796497
  H        -1.8300413080        1.4991471331        6.7471661139
  O        -1.3020884723       -3.6548135632        2.4498589504
  H        -0.7486147372       -3.8250066454        1.6416948430
  H        -0.9152816491       -4.2839589030        3.0998295400
  O        -2.1097100695        2.8398429229        2.7738335821
  H        -1.7638222036        1.9980315726        3.0410732773
  H        -2.8278981774        3.0669096128        3.3758224393
  O         1.4649910615        0.3081801181       -4.7087963312
  H         1.9611940744       -0.0481186704       -5.4427757564
  H         2.0603772299        0.2175977123       -3.9506703896
  O        -0.9862215889        0.3963649183        0.2065783927
  H        -1.6685458911        0.1278125717        0.8370050910
  H        -0.1599696995        0.0397941515        0.5859555345
  O        -3.2352896231        4.2758078625       -2.7649642075
  H        -3.9919717616        4.8207904828       -2.4464119168
  H        -2.8899566596        3.8708910139       -1.9888233441
  O         5.6705287126        5.8855984249        2.8268244882
  H         5.2295447583        6.4893062106        2.1922714587
  H         4.9886087583        5.7360152620        3.4863239422
  O         5.2704968615       -1.0562303210       -4.2453174382
  H         5.4848936655       -0.2706500622       -4.7483676086
  H         6.0323566312       -1.3321306517       -3.7212742124
  O        -5.7971934568        5.8697787481       -2.3902665103
  H        -5.5725597486        6.5663451996       -1.8189265621
  H        -5.8819895941        6.2169252113       -3.2962622849
  O         8.3186956485        0.3053400473       -0.7393609604
  H         8.9222661639        0.9292317276       -0.3675476499
  H         7.6786517883        0.8943643577       -1.1611659827
  O         1.6166926645        0.0092424691        0.7601168105
  H         1.9512082151        0.2709772104       -0.0716764966
  H         1.7945218291       -0.9750678225        0.8905147298
  O        -5.1469213069       -5.2443127230       -0.1777772304
  H        -4.5349907779       -5.4100120434        0.5824555981
  H        -6.0581035713       -5.2577602967        0.2266560221
  O        -3.3220710033        2.8178491947        0.2360459146
  H        -4.2594106589        3.1530298019        0.3457797665
  H        -2.9046954045        2.7506450151        1.1159720545
  O         4.8959869818        1.1654908123       -5.8260076005
  H         5.5337106652        1.4721666397       -6.4276400223
  H         4.2542368493        0.6182639451       -6.2691536437
  O         3.8906860784       -3.0811779560       -0.8132031767
  H         4.7569754928       -2.7672044928       -1.2034460251
  H         3.0998003985       -2.9822019155       -1.4244641213
  O         2.2912210734        1.8430061962       -1.3174329449
  H         2.8511751385        2.3180526053       -0.7002119284
  H         1.6856108785        2.3515231638       -1.8705497402
  O        -1.9979949123       -1.3334509873        3.5053743139
  H        -2.0509711724       -2.1997532349        3.0521228945
  H        -2.8244959856       -1.1347687856        3.9636904515
  O         2.7999658864       -8.7658239484        2.4302916776
  H         2.6848656030       -8.2031525106        1.6195460442
  H         3.0950029445       -8.1904995099        3.1674744618
  O         1.9603786119       -3.2465814469       -2.7846173895
  H         1.7335446057       -3.9977716545       -3.3485291790
  H         1.5005574685       -2.4480458069       -3.1791847629
  O        -5.6622231335        3.9458348208        0.9300070844
  H        -6.4062617111        3.3549802162        0.6874061896
  H        -5.8336078861        4.4344374077        1.7760262472
  O         2.0520576071       -4.6029742957       -7.2586721008
  H         1.2203562005       -4.7759309218       -7.6644314234
  H         2.5474510837       -3.8884126578       -7.7516914309
  O         0.1772051356        3.2493869819       -3.6262835978
  H        -0.0554408289        2.5995872020       -4.3023462295
  H        -0.2449611731        4.1064648167       -3.8683489357
  O        -3.0022559425       -5.7235541557        1.5577762404
  H        -2.5862041774       -4.9710521479        2.0359576670
  H        -2.5519076083       -5.9255482471        0.7536263308
  O         3.0871791920        5.2636629686        4.5283199387
  H         2.6857476834        6.1342058302        4.6363942426
  H         3.1872201991        4.9186037111        5.4334288854
  O        -4.3286936728        2.0951395428       -3.9132033574
  H        -3.6651212425        1.3777047977       -3.9013088018
  H        -3.9455892512        2.8700763597       -3.5015592053
  O         2.0649080029        1.0648714575        3.2638559946
  H         2.4160736703        1.9159669370        3.0081062560
  H         1.9148151721        0.5325734129        2.3929815341
  O        -7.8321948915        2.1954141010        0.7145868712
  H        -8.3351878273        2.6223403290        1.4162316782
  H        -7.6770027097        1.2474050359        0.9968443482
  O        -0.4021820207        0.5636281207        4.2295192626
  H         0.4684353553        0.8223851941        3.9660836913
  H        -0.7816925180       -0.2807636817        3.9933700139
  O        -1.4100447230        4.9644917729       -0.0172340582
  H        -1.1425739760        5.0736405602        0.8965956675
  H        -2.0964464159        4.2313866531        0.0295723049
  O        -0.3367730390       -1.7071567726       -4.0287526545
  H        -0.5262926233       -1.6574881598       -3.0426091644
  H         0.2472230752       -0.9263396311       -4.2929033679
  O        -6.4520029999        1.6847000191       -2.1798096638
  H        -5.7195032966        1.8512624897       -2.8036309692
  H        -7.0563554073        1.0496946368       -2.6544161432
  O         6.3949798423       -2.2529104954       -0.9820024185
  H         6.9391685718       -2.8980847252       -0.5464278806
  H         6.9785433088       -1.7999931511       -1.5887026668
  O        -1.4805951507        1.7137769153       -1.9217293914
  H        -0.7694852867        2.2097863706       -2.3832834945
  H        -1.1379148489        1.4100297102       -1.1091218048
  O         0.5319256850        6.2513602340       -1.4358906510
  H         0.5369435647        6.2156129256       -2.4247188084
  H        -0.1940602195        5.6744286420       -1.0977805556
  O         7.4604022643       -2.3074490822        5.8656584358
  H         7.9837722619       -2.8269120986        6.4791131488
  H         6.5301814130       -2.3328967495        6.2007483864
  O        -1.2274971049       -6.9379425516       -4.3267648266
  H        -1.4364993657       -7.1256771192       -5.2993933232
  H        -1.9620369015       -7.2058462608       -3.7637702019
  O        -4.5840844907       -1.4860992808       -3.2135673390
  H        -4.2571405652       -2.3578393773       -3.5550070123
  H        -4.0165267984       -0.7876900938       -3.4446137675
  O         3.0035577896        4.9679756485       -0.0040599668
  H         2.1971014077        5.3477904519       -0.3786450468
  H         3.5595488768        4.6519641404       -0.7326224533
  O        -3.8047482041       -4.1048733890       -4.0803660642
  H        -2.8995688682       -4.2456033939       -4.5450475095
  H        -4.4478782695       -4.6926621261       -4.5592107861
  O        -0.0369168106        4.9361380093        2.5828902594
  H        -0.7063175593        4.3117614139        2.8610669236
  H         0.7641455162        4.4041856439        2.4634823920
  O        -1.4236432765       -4.0721310148       -5.1865062624
  H        -0.8209174971       -4.6691851030       -4.6906395696
  H        -1.0719863998       -3.2139244238       -4.8123316955
  O        -6.0050605605       -0.8413322871        1.8455016450
  H        -5.7384110576       -0.7961266150        0.8966040257
  H        -5.9473674779       -1.7669622579        2.0935402176
  O         2.4350071086        4.7423451678       -3.7392720464
  H         3.0342946925        4.5725701301       -3.0149803810
  H         1.7361678193        4.0532195198       -3.8408986791
  O         2.9716977388       -0.5907964668       -2.5029077175
  H         2.9721405814        0.1763289302       -2.0096976762
  H         3.8360354224       -0.6694506684       -2.9921854887
  O        -1.3159079235        4.9045666945        5.4819556250
  H        -1.2888291232        3.9091956336        5.6130465878
  H        -2.0335879778        5.0786573470        4.8325979423
  O         0.1561344856       -3.6945627276        0.0611837844
  H         0.3046624324       -4.3543451145       -0.5944043663
  H        -0.3321987598       -2.9026046209       -0.3828785858
  O         6.5878593506        6.8041193027        7.5103961537
  H         5.9124879804        7.4961390102        7.5375050288
  H         6.5159979027        6.0292059129        6.9286063596
  O        -0.5762798782       -5.0871272101        4.7299334566
  H        -0.5350362919       -6.0314713990        4.8792228954
  H        -0.9477820266       -4.7796946191        5.5904194840
  O        -2.9681318893       -3.7070961461       -1.5397426974
  H        -3.5909538446       -4.0683840593       -0.9111795557
  H        -3.3464207917       -4.0519838389       -2.4137633106
