     192
 i =      800, time =     1200.000, E =     -1100.0645560501
  O         5.1610156165       -4.7392413893        4.7022495226
  H         6.0855080299       -4.9781531142        4.4383451531
  H         5.0893438594       -4.5731986967        5.6485172386
  O        -2.9588937814        2.1363305979        4.6389768530
  H        -3.5932467792        1.8767386028        3.9818577198
  H        -3.3805640488        1.8867018784        5.5155768523
  O         6.0719069108        2.7881379826        4.8055748473
  H         5.0955647770        2.8193102256        4.6731560979
  H         6.3885450265        2.5920950349        3.8777145230
  O        -2.2617480314        0.0398032037       -3.3896797599
  H        -1.7885857839        0.4915032847       -2.6414990937
  H        -1.6688948794       -0.7107483024       -3.6825236170
  O        -4.8173277983        4.8426990315        6.0482167008
  H        -5.3462329008        4.1224610476        5.5533011477
  H        -4.3807681780        5.3848121299        5.3492379554
  O         7.5459199610        1.4949472464        2.6729380158
  H         7.5423832325        0.4966858891        2.6166427325
  H         7.6774365272        1.6501088180        1.7120455760
  O         4.0806319323       -4.8903473268       -0.2679608508
  H         3.5764404209       -4.3094676183        0.3121771653
  H         4.1333366225       -4.4308593372       -1.1440217157
  O        -2.5166011375       -3.7125542061       -2.1584004890
  H        -3.3398708952       -3.2452651790       -2.3476125334
  H        -1.8998886884       -3.0664214203       -1.6847746044
  O         4.8778205274       -2.6409065995        2.9047172253
  H         4.9540148960       -3.2195501533        3.6316160410
  H         4.2279486646       -2.9511874949        2.2373098429
  O         3.0303475945        3.6110201066        5.1317625192
  H         2.6700943991        2.7831461175        4.8086604600
  H         2.5985429335        3.8547484728        5.9635687379
  O         3.7859775142       -3.4150025851       -2.6748567210
  H         3.9798884985       -3.6823815324       -3.5410304715
  H         4.4496958804       -2.7856394650       -2.3933575816
  O         2.8583993339       -2.9512921464        1.2632294719
  H         2.3111694327       -2.7487204088        2.0347950266
  H         2.4694666691       -2.5423373001        0.4803751190
  O         1.6552528348       -5.3168567752       -5.6624838408
  H         1.7335541465       -6.2970518448       -5.5516847627
  H         0.8772963474       -5.1633753896       -6.2990830064
  O         4.3319050454        5.0524496204       -3.6275247421
  H         4.9723319472        4.3703276424       -3.6186418960
  H         3.9697210861        5.1200932659       -2.6622536407
  O         2.9805575567       -0.7009667829        5.1887025298
  H         3.8143279149       -0.8390683887        5.6137227808
  H         3.2281372727        0.0095181694        4.4970791954
  O        -0.2565713168        2.5134074524        5.7835828423
  H        -0.0673704184        1.6944088917        6.3187060263
  H        -0.8328254674        2.1624799168        5.1089944969
  O         1.3124932968       -2.2240660781        3.6911039141
  H         2.0823092527       -1.8872070769        4.1665008748
  H         0.8977643407       -2.8693308844        4.2742038344
  O        -1.8955260222        3.7563905439        2.9354607097
  H        -1.1858286336        3.0255973942        2.7072983785
  H        -2.0772149651        3.4285670923        3.8615484633
  O         0.7294449614        0.0682722324       -5.2326513575
  H         1.5769107801       -0.0875936495       -5.7192282407
  H         0.9861457167        0.2807649655       -4.2895278582
  O        -0.9154265121       -2.2798244512       -0.7170078704
  H        -1.1316220963       -1.4006379363       -0.3642077254
  H        -0.4951286671       -2.7303873365        0.0302695458
  O        -3.6539989815        3.4818366348       -2.3774895645
  H        -4.0445324086        4.4015917783       -2.4827102856
  H        -2.6520651123        3.5909303778       -2.4267936234
  O         5.6340626742        3.9850102053        1.6990257299
  H         5.0532442111        3.5591777376        1.0070586821
  H         5.0497041941        4.4813173942        2.3078607105
  O         4.0155945764        0.3476561024       -3.4496187146
  H         4.1501109125       -0.5163497483       -3.9087346929
  H         4.7935985872        0.3412750710       -2.9018915264
  O        -4.4047882025        5.9380368190       -2.3659598879
  H        -5.0621555625        5.9660942951       -1.6188158942
  H        -4.9158733156        6.2006373185       -3.1188345058
  O         6.2665734476       -0.2175225571        0.3515946544
  H         6.7034456979       -0.6274641821        1.1336309860
  H         5.5700558111        0.3680901572        0.6314207231
  O         3.5838452210        0.7040507502        1.0259384968
  H         3.6027951360        1.4680351112        0.3145359974
  H         3.0458619610       -0.0047627283        0.7079373337
  O        -5.8585951285       -6.1905404363       -0.0718225961
  H        -6.1397599922       -6.8993104591        0.5112743431
  H        -6.6560920356       -5.6086993018        0.0654419227
  O        -4.3722643254        4.8495061529        1.9856110468
  H        -5.0730666540        4.1150311821        2.0224073492
  H        -3.5318918457        4.3764789656        2.3759339282
  O         6.3864529646        1.2554517924       -5.2367190599
  H         7.3500556908        1.5105453798       -5.0554915772
  H         6.3868833804        1.6470496817       -6.1343605725
  O         1.9863085744       -2.1443764739       -1.2475281855
  H         2.4227996044       -2.8006540356       -1.8656760152
  H         1.0055695663       -2.2058450242       -1.3720104394
  O         4.1181799022        2.5894630926       -0.8157375633
  H         4.8385307321        2.5970881065       -1.4619373723
  H         3.5711327845        3.3767512346       -0.7937738928
  O        -0.6603916246       -1.2137214214        2.3141082747
  H         0.0937035358       -1.6930480473        2.7809407736
  H        -1.4922036347       -1.4746946668        2.6493539089
  O         2.1215383202       -6.3708705162        1.7149826975
  H         2.3540778833       -6.8570105000        0.9450431325
  H         2.8209086637       -6.5918497410        2.4396419129
  O         0.2883154585       -4.3712468250       -3.3346404375
  H        -0.6949113249       -4.4918606664       -3.3120022745
  H         0.5328685255       -4.6361530089       -4.2365493634
  O        -4.8404190285        2.1859140069       -0.0637660205
  H        -4.1615880289        2.5486633635       -0.6320788313
  H        -4.9960329413        1.2927295708       -0.3794171800
  O         4.0686046257       -3.9546190876       -5.1621885873
  H         3.2390893742       -4.4066365377       -5.4384679476
  H         3.9238861018       -3.1016549458       -5.5265987217
  O        -1.1216475049        3.9876310357       -2.9122371677
  H        -1.4209030632        4.3608867086       -3.7117939299
  H        -0.4055173517        4.5272850630       -2.5408127521
  O        -4.4077587143       -5.8336418440        3.9300359354
  H        -3.7204439090       -5.0964320691        3.8446078517
  H        -4.3927019169       -6.3749008324        3.1111968232
  O         4.0121464539        5.6259807149        3.5154430925
  H         4.4324933966        6.2727370810        4.1583313416
  H         3.6650360461        4.8189399422        3.9088900817
  O        -3.5350927424        1.8124180068       -5.0300661459
  H        -2.8895938756        1.2694716994       -4.4830727327
  H        -3.5444596156        2.4932445926       -4.3555184368
  O         3.8227799659        1.2058308423        3.5139961497
  H         3.7199725087        1.1437411721        2.5436953675
  H         4.7919682898        1.1176215447        3.6093697287
  O        -5.1090441596       -1.3293447499        2.4664082326
  H        -5.9102235683       -1.9152983688        2.6328002097
  H        -4.5219991554       -2.0041306768        2.1197877617
  O        -0.1964924211        1.6922286611        2.6676185743
  H         0.7421150245        1.8304543381        2.5074287796
  H        -0.4231293085        0.7554055368        2.4829310748
  O        -1.3675032437        5.9871635944        0.3456161581
  H        -1.6371430339        5.3907434880        1.0873457575
  H        -2.1885745164        6.5029510158        0.2230762832
  O        -0.8241097571       -1.9321741803       -4.5349814044
  H        -0.2242599362       -2.5536824376       -4.1432403767
  H        -0.2351423126       -1.2179471812       -4.9047695922
  O        -6.5106818018        2.7787338436       -2.9976118597
  H        -5.5317944293        2.7701200256       -3.1567253025
  H        -6.7660244323        2.2267157118       -3.8098378455
  O         5.5675184538       -1.3647855099       -1.9095974317
  H         6.4171757444       -1.4681310393       -2.3363250956
  H         5.8080762707       -0.9267559097       -1.0336720731
  O        -0.8084420425        1.4162255484       -1.5334942148
  H        -0.8437903890        2.3038535676       -1.9368211155
  H         0.1122257381        1.1055003521       -1.8056980267
  O         0.5633167607        5.7813439356       -1.6859557807
  H         0.4759370076        6.5989849977       -2.2222058922
  H        -0.0988020122        5.8777707815       -0.9832029506
  O         5.2213918387       -1.0453360159        6.8473981116
  H         5.8417833659       -1.6987302427        6.5641668992
  H         5.7604264422       -0.1889082952        6.8966906228
  O        -2.2772077982       -5.4017558907       -4.5124983421
  H        -2.1841785740       -6.3375532921       -4.7833737121
  H        -2.6116955023       -5.4777223293       -3.6164391940
  O        -4.5345280627       -2.0797568811       -3.1742655968
  H        -4.8414541885       -2.5658443848       -4.0113419094
  H        -4.0977973168       -1.2747937860       -3.4835166596
  O         3.0519322593        5.2138908165       -1.0239331313
  H         2.0471019922        5.3642180129       -1.2355667383
  H         3.3454672497        6.0747079272       -0.7465503537
  O        -5.2182829261       -3.0759416886       -5.4513064494
  H        -4.2919259674       -3.2200792242       -5.7892619298
  H        -5.5680097609       -3.9331674430       -5.2019886204
  O         0.0979032676        5.8143199630        3.4216621419
  H        -0.4611232930        5.1266416549        3.0820458333
  H         0.7688747532        5.7894645762        2.7201092535
  O        -2.5580692572       -3.4202551276       -6.2247508804
  H        -2.3999249015       -4.1501124073       -5.5638478223
  H        -2.2012788240       -2.7085958160       -5.7036701960
  O        -2.4248298937       -3.9176775308        2.8112929335
  H        -1.4492341366       -3.8850148102        2.7964795949
  H        -2.6905871809       -4.0997532562        1.9152915806
  O         1.8832203871        4.5252435685       -4.8926503727
  H         2.7141657472        4.6803754847       -4.4866170793
  H         1.2621483797        4.1616512747       -4.2124622818
  O         1.5297959751        0.3132913778       -2.6672491902
  H         1.7871276632       -0.5359446267       -2.2122945388
  H         2.4330465970        0.5522893013       -2.8255225836
  O        -2.0550051230        4.5946785392        6.9527497129
  H        -1.6358589587        3.8071501318        6.6811214046
  H        -2.9508371656        4.4955744017        6.6495719055
  O         0.1456892310       -4.0774211854        0.8838368936
  H         0.9765631064       -4.4200643721        1.1963622407
  H        -0.3505036094       -4.9240918498        0.6762705414
  O         6.5785718145        6.6717257102        7.6798436169
  H         5.6354432547        6.4213039519        7.8589460690
  H         6.7321060370        6.0529544560        6.8840514279
  O        -0.0593067311       -4.2910090312        4.8448951726
  H        -0.3260967477       -5.1036620798        4.3671298560
  H        -0.7977583264       -3.9833338786        5.3441789752
  O        -3.4150256763       -4.7606096225        0.2926950497
  H        -4.2278352532       -5.3549451869        0.2495365708
  H        -3.1786491579       -4.4592428413       -0.6210939754
