       6
 i =      800, time =      160.000, E =       -34.4474591936
  O         2.8456931456        4.5520768304        3.2231526565
  H         2.1710707635        3.8869047610        3.2785067679
  H         2.9283996655        4.8079017283        2.2706261453
  O         5.5865491540        4.4264664248        4.9482074933
  H         5.8565652355        3.4649031696        4.8355327224
  H         4.8287157313        4.4983417568        4.3274499904