6
Properties=species:S:1:pos:R:3 i=0 time=0.0 E=-34.4504806384 pbc="F F F"
O        0.13004683      -4.52724737       4.72463018
H        0.10722780      -4.99936959       3.88566123
H        0.42321988      -3.63608971       4.51011539
O       -2.64274241      -4.40256037       5.86269477
H       -2.67037779      -4.79849917       6.73824817
H       -1.72134555      -4.48476286       5.57166284
