6
Properties=species:S:1:pos:R:3 i=0 time=0.0 E=-34.4504806384 pbc="F F F"
O      -4.96059955       1.53008361       3.98576310 
H      -4.46802921       0.82091189       4.41207161 
H      -4.36041884       1.90321806       3.33255349 
O      -7.34421791       0.37036662       2.58129950 
H      -8.15738788       0.76998418       2.90252434 
H      -6.63196480       0.79695682       3.08244350 
