       6
 i =     1000, time =      200.000, E =       -34.4479707669
  O         2.9862029984        4.6378248386        3.2576204533
  H         2.6436989010        3.7158758250        3.1016612363
  H         3.1721071781        4.9889282126        2.3736374296
  O         5.3124511030        4.4400817285        4.9877830779
  H         5.8163352092        3.6805491955        4.7662001480
  H         4.6503229554        4.4759470824        4.2848379507