       6
 i =      700, time =      140.000, E =       -34.4475665582
  O         2.8143005086        4.4771399814        3.1959926769
  H         1.8908510994        4.2725362882        3.3543705569
  H         2.9023494072        4.7482703687        2.2744310468
  O         5.7080488589        4.3913950410        4.9493831489
  H         5.6037896477        3.4241250878        4.8250135348
  H         4.9212254819        4.7260203965        4.4067505543