6
Properties=species:S:1:pos:R:3 i=0 time=0.0 E=-34.4504806384 pbc="F F F"
O        3.51922530      -3.39522672       4.35000000
H        4.14054276      -3.03238568       3.71000000
H        2.71783951      -2.87075193       4.25600000
O        2.91781836      -6.24587274       3.63500000
H        3.13247036      -6.83336701       4.36500000
H        3.14061621      -5.35511681       3.94700000
