6
Properties=species:S:1:pos:R:3 i=0 time=0.0 E=-34.4504806384 pbc="F F F"
O       4.32621727      -1.52329497      -4.66887864 
H       3.48624672      -1.91723585      -4.92684968 
H       4.10452869      -0.84587798      -4.02228032 
O       6.03459658      -3.61185126      -3.35797408 
H       6.87224126      -3.70681550      -3.81998941 
H       5.54961308      -2.92567557      -3.84210519 
