6
Properties=species:S:1:pos:R:3 i=0 time=0.0 E=-34.4504806384 pbc="F F F"
O        6.19606016       1.95076456       0.79897894
H        6.22815667       1.06918298       0.41287957
H        5.30773738       2.27628601       0.62277618
O        6.59705470       1.74452856       3.76474496
H        7.35189875       2.27000996       4.04439610
H        6.54015609       1.86595624       2.80430399
