     192
 i =     3000, time =     4500.000, E =     -1100.0662686361
  O         6.0096741591       -4.1652514724        3.8339279971
  H         6.9235193291       -4.3713368042        3.6124996844
  H         5.9744922426       -3.2663797804        4.2157501675
  O        -3.0719563391        1.9404508720        5.1863995373
  H        -3.4848315894        1.2111854473        4.6985826800
  H        -2.8177066953        1.6149721574        6.0492229719
  O         7.1856791351        3.7027924758        5.1301959804
  H         6.7199053686        3.3945644911        4.3522994639
  H         7.9975837529        3.1231478137        5.1699537592
  O        -2.1425272368       -0.3041268363       -2.8511538201
  H        -1.9757208296       -0.4388269135       -1.8996181233
  H        -1.3808538034       -0.7587135605       -3.2892304442
  O        -4.2404593129        6.6864614669        5.8199082100
  H        -4.9005761602        5.9946192713        5.8855008964
  H        -4.2439782566        7.1493315822        4.9553436791
  O         8.1592310101       -0.0346137367        3.7676602205
  H         7.3527749682       -0.4403190058        4.0853572525
  H         7.9668073103        0.5217540908        2.9783772805
  O         4.0171602272       -5.3140291758        0.8400271406
  H         3.5971950533       -4.5721973455        1.2701634632
  H         3.3455376532       -5.9828631269        0.6212135905
  O        -1.0098439337       -3.9845847423       -1.5418948640
  H        -1.9703308391       -4.2234176476       -1.6622884307
  H        -1.1038344932       -3.1369299303       -1.1008408584
  O         3.3020630700       -1.8033434954        3.8545901636
  H         3.2637738028       -2.6667655434        4.2850472408
  H         2.7891577142       -1.9772264264        3.0038697637
  O         4.3828651267        2.9136656931        5.9124669820
  H         3.7747757224        2.1783885609        5.8130516276
  H         3.9375859069        3.5507650028        6.4372778774
  O         4.9769273590       -4.1625414045       -3.2365360554
  H         5.0688241106       -4.3286449456       -4.2196621014
  H         5.4396910427       -3.3410974603       -3.1812430579
  O         2.3454981525       -3.1632248664        1.2544404828
  H         1.5667944573       -3.5876076349        0.8817558846
  H         2.6298094548       -2.5940954747        0.4674648234
  O         2.0170799758       -5.0330810472       -5.5733661319
  H         2.1442555864       -5.9834667651       -5.3535848937
  H         1.3025574324       -4.9869234589       -6.2361326022
  O         4.2950902021        5.7445498064       -2.5369635710
  H         4.9747966102        5.1275426869       -2.3763091733
  H         4.6064834496        6.6650906532       -2.6943051809
  O         2.9119324136        0.6752760181        4.8913298798
  H         3.1176232809       -0.2357891105        4.6677652371
  H         2.5594474890        0.9724713336        4.0080941769
  O        -1.1706871526        2.9146609813        7.2868659219
  H        -0.4026205731        2.4119429293        6.9028373737
  H        -1.8513807328        2.1926957901        7.5444777088
  O        -1.5242164072       -3.8642511275        3.1554547771
  H        -0.9866887997       -4.2843899177        2.3841271609
  H        -0.9369426247       -4.1639866516        3.8748548239
  O        -1.5884981413        3.8266792975        3.2813843806
  H        -1.5431875307        2.9237139225        2.9000389167
  H        -1.5667767578        3.8168015397        4.2273371140
  O         0.8870527505        0.8494374193       -5.7703268895
  H         1.6146052603        0.7960503203       -6.4800590744
  H         1.2847477582        1.4896382018       -5.1082417989
  O        -1.3273331828       -1.4268523523       -0.1591127696
  H        -1.5590654875       -1.2945625187        0.7719253568
  H        -0.4192309789       -1.0180017878       -0.2090672141
  O        -3.8249815866        3.6108206348       -2.4418506570
  H        -4.1822692120        4.5159522315       -2.3998110228
  H        -3.2918888597        3.4249366569       -1.6489797057
  O         6.6229734836        3.6997253642        1.2183487790
  H         6.3583932461        3.8272998207        0.2691589210
  H         5.7973886005        3.7825965185        1.7465750710
  O         4.7202434267        1.2708112134       -3.3449755077
  H         5.2685843425        1.1302643665       -4.1056813239
  H         4.7573915468        0.3660489862       -2.9235407524
  O        -4.6436027129        6.2191031857       -2.8292606037
  H        -5.0823275159        6.9293527650       -2.2883099715
  H        -5.2997687636        5.8244589282       -3.3600723162
  O         5.8282822746        0.7263101141        0.0816381413
  H         5.3850014242        0.3514521958        0.8965953437
  H         6.7023045597        0.9138584020        0.4716063188
  O         1.1378254264       -0.3219026081       -0.3417629705
  H         1.2412332898        0.5834053593       -0.7104539713
  H         1.8524208500       -0.9028696819       -0.8114145630
  O        -6.1531145501       -5.8427313445       -0.4975624324
  H        -5.8095598026       -6.5557927386        0.0151334919
  H        -6.9688909643       -5.5709948453        0.0244510829
  O        -3.6741728772        5.1289654821        2.1910344535
  H        -4.4580005289        4.6058657701        2.2227250090
  H        -2.9339400681        4.8433488804        2.7244753792
  O         6.6917953410        0.7221084602       -5.2070382375
  H         7.5695472909        0.7587763155       -4.7591600968
  H         6.8551496615        1.4827861218       -5.8188498051
  O         3.0358473338       -2.0076390078       -1.5168326834
  H         3.8649924196       -1.8394762436       -1.8287465365
  H         2.6558290356       -2.6041843861       -2.1838269558
  O         2.5293386050        2.0929390503       -1.0592324460
  H         3.4910806840        2.0019297497       -0.7949430381
  H         2.4367841326        3.0553920445       -0.9529803308
  O        -2.1433529611       -1.1873912713        2.6312076833
  H        -1.8989740889       -2.0189326850        3.0977009279
  H        -2.9405447285       -0.8477817345        3.0702045442
  O         2.6405120453       -8.8511672594        1.7026082417
  H         2.9213539379       -8.2324952986        0.9491733730
  H         3.2772931143       -8.8170591488        2.4010254723
  O         1.3051859652       -3.6026529294       -3.1941818603
  H         0.5334536475       -4.0415500314       -2.7732154842
  H         1.5316870013       -4.1476159069       -4.0258506997
  O        -4.1511314839        1.5753865766        1.6409436691
  H        -3.4563968941        1.6670012508        0.9614550875
  H        -4.6870524684        2.4170583442        1.5236897711
  O         5.0848626843       -5.6264838212       -6.4690287050
  H         4.1376434721       -5.3669627780       -6.3384201194
  H         5.6202847300       -5.1417266728       -7.1176669893
  O        -0.0413858959        2.9099103430       -2.4076911719
  H        -0.3788291600        2.9893809669       -3.2905305019
  H         0.0563207070        3.8290299772       -2.0791322830
  O        -4.0493780976       -4.7630304907        3.2192997638
  H        -3.0474982840       -4.5177708540        3.2347609401
  H        -4.0837310216       -5.6659809630        2.8229241416
  O         4.8420712977        4.0377932712        3.6670461478
  H         4.7592807195        4.9762139475        3.7476552730
  H         4.7152237140        3.6260109231        4.5694958796
  O        -3.4079455663        1.6987379492       -4.1536261721
  H        -2.9569195625        0.9923420010       -3.6425206569
  H        -3.5699915099        2.4833156332       -3.6154640247
  O         1.6865278978        1.1808667384        2.1656957473
  H         2.0912563778        1.9408050240        1.6767827423
  H         1.6465642445        0.4793737051        1.5275445996
  O        -6.9448095754       -0.7711348047        2.5011420669
  H        -7.3462920412       -1.1729552785        3.2957333810
  H        -6.3426400049       -1.4299106510        2.1618000849
  O        -0.9681561754        1.5212063041        1.9930452541
  H         0.0254556791        1.4113208650        2.2055364857
  H        -1.2466995548        0.6829898529        2.3695620701
  O        -2.5343540951        5.8465293693       -0.2137093302
  H        -2.8353366388        5.4294449106        0.6142725471
  H        -3.2156657614        6.4153327676       -0.4489488711
  O        -0.1060802893       -1.4582762436       -4.3234702668
  H         0.5418756007       -2.0426145986       -3.8289824180
  H         0.3621637574       -0.7430121174       -4.6935002253
  O        -6.7353119548        3.4814012208       -1.5131818361
  H        -5.8173136630        3.4565419336       -1.8278965264
  H        -7.1363486631        2.6542388443       -1.9684514634
  O         5.5963201539       -1.0430459987       -2.1347748141
  H         6.4387489199       -1.3913335286       -2.3888430090
  H         5.7351686323       -0.6896709244       -1.2605861617
  O        -1.9561773185        2.0301554401       -0.4156554033
  H        -1.2756202223        2.0619366398       -1.0813973172
  H        -1.3783317874        1.9444430309        0.3643305114
  O         0.0037210764        5.5251885367       -1.7198218897
  H        -0.5712861709        5.7402555930       -2.5168280543
  H        -0.5887461670        5.5052430427       -1.0145352562
  O         6.4806418479       -1.9342144851        5.6526655772
  H         7.0707923501       -2.4113587416        6.2200417390
  H         6.3153450892       -1.0949077976        6.0232762340
  O        -1.9042400295       -5.9926182294       -3.7319638256
  H        -1.8473285751       -6.5825214638       -4.5165684479
  H        -2.9088501575       -6.0482042853       -3.5771855887
  O        -4.3197418506       -2.0663747554       -2.7224007897
  H        -4.3763477843       -2.6865956124       -3.4639315554
  H        -3.5446334026       -1.4778609214       -2.8884460407
  O         2.5610098604        4.9346907750       -0.6320593423
  H         1.6760608006        5.0437146935       -1.0624001693
  H         3.2424789776        5.3161967711       -1.2493475771
  O        -4.2311252824       -3.3210175233       -5.1646744814
  H        -3.2721661187       -3.1398628449       -5.2486362399
  H        -4.3186842809       -4.2603887230       -5.3650189746
  O         0.2077914533        4.9198321774        1.2153467986
  H        -0.4663684119        4.6284912835        1.8464196531
  H         0.9865597225        4.4052584600        1.5102928787
  O        -1.6350643782       -3.4119415967       -5.2894800089
  H        -1.6091597150       -3.8403485304       -4.4138232447
  H        -1.1610720826       -2.5573779380       -5.0709376177
  O        -4.6880645814       -2.1199850132        1.3368145890
  H        -3.9178688656       -1.6262774708        1.0791189910
  H        -4.3184256950       -2.9932107607        1.6205263301
  O         3.0414776266        4.9990950404       -5.0589365128
  H         3.4370762269        5.3846557468       -4.2476574201
  H         2.7135100584        4.0805269146       -4.8094863159
  O         2.2994134010        2.4993259628       -4.0317887512
  H         1.9357785243        2.5826837089       -3.1275550181
  H         3.2160700610        2.2392300890       -3.7920217493
  O        -1.6948044453        5.0535628365        5.7242123051
  H        -1.5773552553        4.2056608874        6.2112654961
  H        -2.6300817843        5.3002049920        5.8945618630
  O        -0.2322983201       -4.8972049266        1.1031112408
  H        -0.0958053609       -5.8697003720        1.1412685936
  H        -0.7522553082       -4.7174247754        0.2645074889
  O         6.3193158194        4.8968483306        7.5743218360
  H         5.6880828114        5.5032248720        7.1438178518
  H         6.4453612644        4.2576462879        6.8270346232
  O        -0.1660708103       -4.9097056640        5.2890197878
  H        -0.5796915987       -5.8189788326        5.2943867154
  H        -0.6337134957       -4.3565176897        5.9154451229
  O        -3.6371665025       -3.7132764937       -0.5323896643
  H        -4.4869386639       -4.1867638507       -0.3800102844
  H        -3.8420280876       -2.9861810270       -1.1458332297
