       6
 i =      300, time =       60.000, E =       -34.4446499285
  O         2.7320441467        4.3031928081        3.2971285463
  H         2.0827973064        4.9900913536        3.5447717875
  H         2.7332224110        4.2009953339        2.3626666868
  O         5.9364531374        4.2944492033        4.9354714067
  H         6.1584791866        3.3941854908        5.1927527439
  H         5.2153329282        4.1607153619        4.2334460121