       6
 i =      850, time =      170.000, E =       -34.4477702195
  O         2.4505656815        4.2274658092        3.5228003448
  H         1.8456523437        4.2727588734        4.2683522880
  H         1.9648229959        3.5942267451        2.9786842649
  O         5.4101254283        4.2289597667        4.4970439620
  H         4.8742175091        3.7296700688        5.1627799956
  H         4.7230646262        4.5124982107        3.8687847032
