       6
 i =      725, time =      145.000, E =       -34.4470374600
  O         2.8236551995        4.4994569683        3.2041607019
  H         1.9005695401        4.1368155888        3.3273631440
  H         2.9274435328        4.7550075259        2.2772862487
  O         5.6751589036        4.3998393886        4.9467465034
  H         5.6738011308        3.4486520588        4.8254711185
  H         4.9681785776        4.6849782153        4.3784619875