6
Properties=species:S:1:pos:R:3 i=0 time=0.0 E=-34.4504806384 pbc="F F F"
O       4.43171288      -0.84926275       4.74064183 
H       4.77760629      -0.16910773       4.15324426 
H       3.48742637      -0.88937609       4.55941572 
O       5.67978729      -3.48581879       4.04065575 
H       6.13093325      -3.86249583       4.80138352 
H       5.30992862      -2.64472872       4.35081870 
