     192
 i =     6200, time =     9300.000, E =     -1100.0717112501
  O         6.3668086437       -3.4494066786        3.0158039161
  H         6.6662672091       -4.3270066330        2.7529201645
  H         6.5493523919       -3.3437059087        4.0022849037
  O        -5.8671632506        2.0270937492        6.0503026234
  H        -5.5083458843        1.4788642416        5.3734082175
  H        -5.0678020358        2.1998288305        6.5311564348
  O         6.4528543598        4.8657297476        5.6087799645
  H         5.8604415464        5.2010093792        4.8889511929
  H         6.3796972849        3.9053706273        5.6093942230
  O        -2.1680637580        0.0892756357       -3.6064961052
  H        -1.7147539735        0.3274321673       -2.7503977617
  H        -1.6170870998       -0.5538158257       -4.0690367057
  O        -3.4805088971        5.4889427960        4.4567006513
  H        -4.3955847755        5.4047887756        4.7890141187
  H        -3.6000405077        6.1369322569        3.6434661561
  O         7.8776864698       -0.1102942981        4.2944899882
  H         7.6367557886       -0.7880738169        4.9925969418
  H         7.3036757634       -0.1548274435        3.5610526421
  O         4.2388668680       -5.5836375330        0.2581711964
  H         4.0759675926       -4.8510849877       -0.3683820215
  H         3.7573044905       -6.3127926946       -0.1879873740
  O        -0.9278813782       -2.4716974403       -1.6482990766
  H        -1.1469253161       -3.4096510394       -1.4936650059
  H        -1.5706583610       -2.0014761254       -1.1264426131
  O         3.9003764483       -2.5645497177        3.4031952359
  H         4.6579495316       -2.9363553546        2.8856991990
  H         3.5063286966       -2.1133587524        2.6402805680
  O         3.3930258502        2.9747242772        5.8274852695
  H         4.0972687025        2.3772734480        6.0383142600
  H         3.2317237819        3.5485939454        6.5939837919
  O         4.8369947327       -3.5317323223       -5.0241807350
  H         4.9312948337       -2.8036752236       -4.3693617100
  H         3.8152829656       -3.7003475917       -4.9405472640
  O         2.6772791009       -2.1099153154        0.9034275009
  H         2.0927578863       -2.8730967855        0.9726296226
  H         3.2727479516       -2.3966077921        0.2142999248
  O         2.4040199975       -4.7956382782       -5.2427804822
  H         2.7892223530       -5.7418149351       -5.1023307759
  H         2.5053135729       -4.6923542720       -6.2361427869
  O         5.1629436137        4.2229339121       -3.0834873629
  H         5.4883743446        3.3425643602       -3.0638742384
  H         5.9411532865        4.8827658440       -3.0568282210
  O         3.0231863931       -0.7842594267        5.2875311325
  H         3.3444146846       -1.4718170545        4.6197965003
  H         2.6289280148       -0.0574898605        4.7666384229
  O        -1.1721095811        2.2221652381        7.0988389421
  H        -1.1465772925        1.6743088536        6.2821852133
  H        -1.4293338266        1.5796493312        7.7962110060
  O        -1.7218468099       -3.4537105346        2.6448050170
  H        -1.1816193891       -3.5584847041        1.8182255621
  H        -1.2321298416       -3.9138048859        3.3232701913
  O        -2.0813505873        3.3033452554        3.1338887234
  H        -1.7891396060        2.5588212687        3.6898047133
  H        -2.6838318974        3.8339130341        3.6131292494
  O         1.7335813887       -1.5605011792       -4.7165494430
  H         1.9428852845       -1.3710349063       -5.6620239034
  H         2.1448318627       -0.8014765899       -4.2481591722
  O        -2.6387371915       -0.7777169573        0.1602672280
  H        -3.5567206450       -0.4165357516        0.0504038776
  H        -2.3901867396       -0.7080068361        1.1449835579
  O        -3.2594652172        3.9842436283       -1.9955489067
  H        -3.9044081672        4.6791494793       -1.9851457985
  H        -3.5572124590        3.4719737770       -1.2287145784
  O         5.7467969049        6.0535784786        2.6494114228
  H         5.2320836147        6.5205381703        1.9553512315
  H         5.0313261730        5.8639355119        3.2855090875
  O         5.2625032530       -1.3626178823       -3.2560589319
  H         4.9387356801       -0.6381762217       -3.8662002766
  H         6.2288942196       -1.3364922620       -3.3189265473
  O        -5.3856770631        5.9430372885       -2.4966107428
  H        -5.5802324178        6.5249796897       -1.7245060825
  H        -5.4135317714        6.4821165713       -3.2989742799
  O         7.4488634066        0.8987537045       -0.1571800143
  H         7.8518885807        1.6309354195        0.2568083524
  H         6.7911200745        1.3627471213       -0.7755252857
  O         2.1320194700        0.7093237992        1.1618706428
  H         1.6499074981        1.0586067412        0.4137669553
  H         2.0412255245       -0.2104242072        1.1362762454
  O        -5.5728675722       -5.0217073790       -0.1780381746
  H        -4.8916091408       -5.3032430215        0.4533053195
  H        -6.4410729211       -5.4493398177        0.0522195872
  O        -3.8716182752        3.2009043427        0.8364473248
  H        -4.7003288025        3.7366631133        1.0492615224
  H        -3.3766256191        3.2428838833        1.6640846272
  O         4.6001300700        0.4196050497       -5.0496764022
  H         5.4240836156        0.8726864249       -5.3452620331
  H         4.3537905823       -0.0722877807       -5.8859301556
  O         4.0834626460       -3.3093796199       -1.1010859165
  H         4.8185553525       -2.7237864266       -1.3725344573
  H         3.2964657543       -2.9561124643       -1.5513647632
  O         1.3512392119        2.3202804547       -1.7705306110
  H         2.1339333532        2.7846419006       -1.5436825636
  H         1.0715072333        2.6231965591       -2.6612816675
  O        -2.0364228825       -0.7632520426        3.0500899410
  H        -1.9619588169       -1.6832328788        2.9709173869
  H        -2.9328755529       -0.5244590734        3.3184734346
  O         2.5923951387       -8.4189476200        2.1175205858
  H         3.3725979697       -8.2791464219        1.5344334885
  H         2.8188887147       -8.0033005106        2.9241278417
  O         1.6033026276       -3.2385869705       -2.4336362334
  H         1.9241919250       -2.9310178485       -3.3064182704
  H         0.7909458134       -2.7021512362       -2.1531681300
  O        -6.3963459740        4.0634901668        0.7036751272
  H        -7.0163948718        3.2547493433        0.7429566318
  H        -6.5279445609        4.6257122949        1.4908274077
  O         2.2863883299       -4.5277229423       -8.0007328088
  H         1.3790321158       -4.6407999119       -8.2656563587
  H         2.7587282174       -3.7408973425       -8.3716311955
  O         0.8132089560        3.4856024612       -3.9054929713
  H         0.3995634049        3.1069620534       -4.7276732205
  H         0.2268133112        4.2505652622       -3.6630125491
  O        -3.5575591757       -5.3359636827        2.5559626394
  H        -2.9866985082       -4.5914803270        2.6155774310
  H        -3.1617324544       -5.8768303729        1.8327234880
  O         3.6201124181        5.4062099754        4.1899216278
  H         3.1448915481        6.1762160724        4.5328301338
  H         3.6382550478        4.6103686521        4.8392556737
  O        -4.1471225699        2.1125130984       -4.1596874846
  H        -3.3617183302        1.5289813319       -4.0981198193
  H        -3.9110547394        2.8356739549       -3.5405870688
  O         1.9170706962        1.6159464083        3.8919371843
  H         2.2332327217        2.3717965264        4.4619843521
  H         2.2347612057        1.7917680076        3.0045365899
  O        -7.5413497033        1.7420981323        0.6686869855
  H        -8.3759333318        1.3181272135        0.7409316536
  H        -6.9578249880        1.1969860078        1.2097594391
  O        -0.8482690402        1.1076855679        4.4359094484
  H         0.0455286756        1.3592610640        4.0779127039
  H        -1.1803151257        0.3940291473        3.8610449085
  O        -2.0348953584        5.5604537955        0.7661968233
  H        -1.0938033594        5.4522828618        0.9709197176
  H        -2.4572631165        4.6588938809        0.6720695407
  O        -0.9643271090       -2.0251578913       -4.4810769412
  H        -1.0762857452       -2.3840588058       -3.5676731361
  H        -0.0392567974       -1.8314322946       -4.4014749962
  O        -6.3020354063        1.6159648153       -2.5073601746
  H        -5.5457332759        1.5107181936       -3.1540129771
  H        -6.8871000170        0.8529622390       -2.6771176241
  O         6.6819754303       -2.4111825557       -1.0707490462
  H         6.9077990861       -3.2162622936       -0.5683870336
  H         7.3149343964       -2.4119490426       -1.8164065962
  O        -1.2382049236        1.2605269681       -1.2889484789
  H        -0.4119194022        1.7681666869       -1.1556516127
  H        -1.4024665542        0.6243330203       -0.5944248387
  O         1.3664769446        6.2023623732       -2.2099655880
  H         1.5475304517        7.1337460815       -2.0654445799
  H         0.5407229553        6.1535655373       -2.6479316565
  O         7.0799534505       -2.4869305229        5.5132715810
  H         7.8676821994       -2.7730745358        5.9637186243
  H         6.3301668950       -2.7279627352        6.1295687843
  O        -1.1673593725       -6.9988127642       -2.9847207358
  H        -1.6099094106       -7.0952956938       -3.8918175829
  H        -1.7226003377       -7.6706647607       -2.4728131058
  O        -4.3455537660       -1.5401028868       -3.9315455520
  H        -3.8871200550       -2.3925246696       -4.1797823949
  H        -3.6204102129       -0.9396287621       -3.7501282388
  O         3.0627074579        4.5583541056       -1.0389817842
  H         2.6166502328        4.9574223190       -1.7752806368
  H         3.9869250632        4.2698767005       -1.3665022280
  O        -3.5358755510       -3.9714073500       -4.8370279188
  H        -2.6710697608       -4.3842818559       -4.8301676264
  H        -4.2237843114       -4.6383541485       -4.8094637961
  O         0.8680032404        5.8923435958        0.9229451244
  H         1.5059135834        5.3026591892        1.3583956759
  H         0.9517572290        5.6962479587       -0.0457153111
  O        -0.6064774209       -4.3980605495       -5.3084923874
  H         0.3182463276       -4.5639844285       -5.0887055964
  H        -0.6469426066       -3.4432189421       -5.1002859361
  O        -6.2074221184       -0.5846580665        2.0048520026
  H        -5.7925962736       -0.3497960677        1.1366912074
  H        -6.1317059437       -1.5621982393        2.0989906342
  O         3.0578106759        4.8690389809       -4.6719013556
  H         3.8144613888        4.5522529472       -4.1438082518
  H         2.2671827705        4.4364454966       -4.2955639895
  O         2.2872610764       -0.2657829549       -2.3088279106
  H         1.9903847321        0.6509794390       -2.3079401369
  H         1.7722431761       -0.7268421751       -1.6516340843
  O        -2.2252840319        4.9527810545        7.1364412284
  H        -2.2893129931        4.0048463280        6.9031988624
  H        -2.5829221230        5.4845686950        6.4008016306
  O         0.4854806607       -3.8603000789        0.8487112704
  H         0.8155963091       -4.7666734420        0.9861278578
  H         0.4032550006       -3.9407473962       -0.1419054085
  O         6.7065256529        7.1412583574        7.5229433847
  H         5.9237709718        7.6655607585        7.6552509601
  H         6.5561245982        6.3739763144        6.8767011265
  O        -0.4971476853       -5.2002541373        4.5555976002
  H        -0.7817321546       -6.1062900987        4.6805110537
  H        -0.4387804151       -4.9110694443        5.5316348839
  O        -1.7917956261       -4.8214415767       -1.0455264077
  H        -1.8528225943       -5.4263690757       -0.2842850609
  H        -1.7415655767       -5.4903667227       -1.7293286149
