     192
 i =     1500, time =     2250.000, E =     -1100.0679177809
  O         5.1839180433       -5.2675295155        4.3058083454
  H         6.1552959122       -5.3658621105        4.4603755257
  H         4.7801086885       -5.2381422219        5.1489665309
  O        -3.9437251031        2.3459111664        5.1122547589
  H        -3.8983412633        1.5502199036        4.5255517335
  H        -3.6470598918        2.0755381712        5.9607290478
  O         3.8685104185        1.7882341400        3.9064647299
  H         3.3103697085        2.5480002024        4.1572624751
  H         4.4889408105        2.2125852486        3.2612220733
  O        -2.2520288185        0.1783079146       -2.8975042878
  H        -2.0975787465        0.6092409751       -2.0358988815
  H        -1.5079511265       -0.3339602642       -3.1697103570
  O        -4.6647835491        4.8596466773        6.2111918918
  H        -4.7965422533        3.9864042199        5.7958620127
  H        -4.6795419859        5.4410418548        5.4619414267
  O         8.9412200205        0.4424192594        3.1825796141
  H         8.2044960231       -0.2047380289        3.2795599679
  H         8.5937025541        1.0368652437        2.5357346665
  O         4.3394796000       -5.5364143491       -1.0209091601
  H         3.9160105072       -4.8294492911       -0.5084979798
  H         4.4718912147       -5.0655662423       -1.8493653368
  O        -1.1145681267       -3.5805433140       -1.2556716903
  H        -1.9422573253       -3.2500742328       -1.6744825234
  H        -0.6950996135       -2.6809565304       -1.1594165533
  O         3.8169604618       -3.1493167434        3.2210975019
  H         4.5252893332       -3.7118500837        3.4710207258
  H         3.5442421522       -3.3536497174        2.3315173495
  O         2.4952922220        3.9748356667        5.5079315081
  H         1.6247952121        3.8943805836        5.2106643468
  H         2.3011741582        4.3435180554        6.3965933281
  O         5.3661117639       -3.8295276079       -3.1667505095
  H         4.9317488159       -3.5808545957       -4.0625816286
  H         5.3590034212       -2.9782051491       -2.7261130943
  O         2.9908864368       -3.6351081632        0.3119809243
  H         2.0536274640       -3.7017269147        0.5266829714
  H         3.1852278860       -2.8661433109       -0.3361897916
  O         1.8860799785       -4.9820072653       -4.6642746698
  H         1.7896858625       -5.9093666780       -4.4420548535
  H         1.3839230326       -4.9370664368       -5.5029587515
  O         4.2916894597        5.2218734616       -4.2417064078
  H         4.7591079071        4.4245332647       -4.3229029661
  H         4.2858596550        5.3385003348       -3.3105126722
  O         2.0489618124       -1.6704447785        4.8499430812
  H         2.7212434976       -2.3493629463        4.5963943608
  H         2.2026381661       -0.9711190196        4.2398384740
  O        -0.1027615768        2.9622686271        5.6003238340
  H         0.2495752696        2.0484160384        5.6092766225
  H        -0.7691972749        3.0181205598        4.9200743766
  O        -0.5802381947       -2.5659926622        3.2319800899
  H        -0.2645972319       -3.2572665850        2.6090283584
  H         0.1491416256       -2.5169759477        3.8358795465
  O        -2.1449398125        4.0686599219        2.9353539964
  H        -1.7813009476        3.2438819854        2.6349514724
  H        -2.8152305901        3.7709514774        3.5698076773
  O         1.0247019066        0.4969065022       -6.1527297571
  H         1.5416466171       -0.2900885133       -6.5810315129
  H         1.7627981561        0.8782919547       -5.6571040077
  O         0.2066301679       -1.1573476117       -0.5264944118
  H        -0.3678693188       -0.9300551960        0.2062715497
  H         0.9597280945       -0.4890338347       -0.5273174771
  O        -4.3315910806        3.7316167288       -2.7891398677
  H        -4.1757382590        4.7169953209       -2.7713471908
  H        -3.9713614433        3.3669061721       -1.9485189469
  O         5.1481360750        3.3069301175        1.7846758045
  H         4.6292095873        3.2388748509        0.9680321062
  H         4.7253911388        4.0630329493        2.2740431936
  O         5.2644378421        0.0174183143       -4.1001810506
  H         5.6518247111       -0.4173059730       -4.8212017480
  H         5.7308702681       -0.4218404567       -3.3503195697
  O        -3.9862751514        6.3033306821       -2.6564174180
  H        -4.5440073412        6.6378000205       -1.8892951169
  H        -4.5906199693        6.5664394079       -3.4159598561
  O         6.2142363006       -0.0809729404        0.9062330232
  H         6.4469191558       -0.8975351526        1.3511576692
  H         5.2817785243       -0.0554679386        1.0212885760
  O         3.4965453924        0.2365239534        0.6510723423
  H         3.6171032341        1.0230586483        0.0522593880
  H         3.4554716708       -0.4968632007       -0.0050249628
  O        -5.2077118603       -5.3315227593       -0.4717338544
  H        -5.0819756394       -6.1135172241        0.0384180892
  H        -6.1519661844       -5.2614517925       -0.5072453365
  O        -5.0746163909        4.9886147348        1.2326551784
  H        -5.8505881587        4.4078188996        1.2382144295
  H        -4.3983183105        4.3639149793        0.9347702081
  O         6.0045128270        0.6151557993       -7.0336342580
  H         6.6454572201        1.3282616832       -7.0250518277
  H         5.2912774041        0.9502124722       -7.5718377559
  O         3.3447778750       -1.6390772867       -1.5861107452
  H         4.1553951130       -1.8841060003       -2.0344758621
  H         2.6999163026       -2.1195916440       -2.1504266476
  O         3.7133493251        2.5101218238       -1.0801105547
  H         4.2315062873        2.7248382258       -1.8609336945
  H         3.2376794746        3.3132192039       -0.9097796760
  O        -1.7882228503       -1.0373352294        1.2596865115
  H        -1.3994195823       -1.5311373372        2.0382261096
  H        -2.4952685145       -0.4948119086        1.5942494597
  O         1.6486190972       -6.7838758077        1.7416005184
  H         1.8743202295       -7.1576285283        0.8288530996
  H         2.3861140875       -6.9735079673        2.2647755839
  O         1.5737197985       -3.1093540074       -2.9469738080
  H         0.8198718915       -3.4418983564       -2.4313989214
  H         1.7129644430       -3.8106458841       -3.6067339217
  O        -4.0625328883        2.3534488636        1.0513458003
  H        -3.3718673999        2.0965882194        0.4224525892
  H        -4.7919846707        1.7664769742        0.8514842367
  O         4.3394153977       -4.3655112890       -5.8599485843
  H         3.3964067513       -4.6781641518       -5.6234540795
  H         4.1949049361       -3.4658337883       -6.2413920456
  O        -0.5293445427        3.5218489200       -2.6161354114
  H        -1.1948825669        3.5845690625       -3.3624335747
  H        -0.5346565267        4.4311142764       -2.2990559484
  O        -4.6145685834       -6.0536581461        3.8518538080
  H        -4.0695687421       -5.2640227882        3.8345092505
  H        -4.8218657835       -6.3416934376        2.9546956633
  O         3.8530480964        5.1264690979        3.2640793679
  H         4.4813284824        5.9048935986        3.3688662448
  H         3.5882676460        4.9598900418        4.1434934425
  O        -3.3320594929        1.7259701031       -4.8580098607
  H        -2.8536038550        1.1750848147       -4.1960914628
  H        -3.6963113229        2.4644593879       -4.3482625461
  O         1.5065182171        0.6654128288        2.5018833691
  H         1.6741147898        0.0411499807        1.8171066048
  H         2.3157690577        1.0036951760        2.8983790938
  O        -5.3088541643       -1.5112113300        3.1343182446
  H        -6.0066988167       -1.4566928511        3.7795287967
  H        -4.6996578732       -2.2714962541        3.3090967476
  O        -1.1548028486        1.7393191286        2.1350955593
  H        -0.3147965393        1.3716963946        2.5265988401
  H        -1.8290144031        1.1908736955        2.5753720131
  O        -1.9071361970        6.1004941220        0.7666965702
  H        -2.0957674889        5.5179486030        1.4912013125
  H        -2.3832428039        6.9703247187        0.8722456821
  O        -0.2180505068       -1.0969864891       -4.0695768845
  H         0.5863124767       -1.4202033932       -3.6663576513
  H         0.1934697001       -0.3910283757       -4.6527694355
  O        -6.9996726478        2.8886110420       -3.4914877781
  H        -6.0768727998        2.9717933441       -3.1797627754
  H        -7.1392007051        2.0125649086       -3.8984416403
  O         6.1325159542       -1.3767813971       -1.6512119761
  H         7.1098943700       -1.5130330727       -1.8647163288
  H         6.0578659100       -0.9934075039       -0.7535153672
  O        -1.9280019756        1.8142595798       -0.6987154821
  H        -1.5419928866        2.5640824876       -1.2786038107
  H        -1.1626914349        1.6646540512       -0.1424175422
  O        -0.0797925780        6.0767475056       -1.4620359295
  H        -0.4110746097        6.7311887628       -2.0942916910
  H        -0.6918495644        6.0413234501       -0.6933087002
  O         5.8352715654       -2.2123459862        6.0077950139
  H         6.6277261572       -2.4462109751        6.4948069102
  H         5.9395183792       -1.2092213323        5.9989046816
  O        -1.5958708337       -5.5109842286       -3.7209865440
  H        -1.3594828461       -6.2643859838       -4.2826761960
  H        -2.4308993956       -5.6263607947       -3.2497833042
  O        -3.9172324830       -1.9682802163       -2.2862260159
  H        -4.1785784106       -2.4611733521       -3.1120819426
  H        -3.2888892590       -1.2783022240       -2.5734753097
  O         2.4039864462        4.9656391337       -0.9403943837
  H         1.5495144369        5.3540559781       -1.2145401719
  H         3.1302294397        5.6382751785       -1.0263895050
  O        -4.2900459035       -3.0885661747       -4.7612539373
  H        -3.3453844072       -2.9580007964       -5.0863497140
  H        -4.4519661843       -4.0348269643       -4.6281297382
  O        -0.2777867552        6.2576840733        3.8407515155
  H        -0.8681531662        5.5067187711        3.6630987257
  H         0.3376588381        6.0596549370        3.1076574661
  O        -1.7373328765       -3.0868912720       -5.2656445060
  H        -1.5323903171       -3.8014039536       -4.7002423695
  H        -1.1730290426       -2.3498468727       -4.9573637322
  O        -3.4306279426       -3.3866487225        3.6543972641
  H        -2.5348094815       -3.3259690529        3.9930404910
  H        -3.2464771857       -3.6561934744        2.7241608679
  O         1.6233915772        4.5339079931       -4.1499469394
  H         2.5455181286        4.3962733989       -3.9287745633
  H         1.0584440988        4.0978681933       -3.4634825789
  O         2.6778104043        1.0315401086       -3.9319453056
  H         2.7358903403        1.3461279183       -3.0245953135
  H         3.4567324541        0.4338106417       -3.9010239038
  O        -1.5738263963        4.4608018230        7.5922557824
  H        -1.0737447682        3.9401016935        6.9795738239
  H        -2.4874225329        4.5015617058        7.2176703805
  O         0.3316988847       -4.1516343250        0.9198789165
  H         0.5082037516       -5.0758327129        1.1917248315
  H        -0.2115101423       -4.1129010676        0.1358115808
  O         6.9677595292        6.8837276731        7.8179887448
  H         6.0704446321        7.0861181306        8.0441972710
  H         7.1002587263        6.1140908402        7.2651994997
  O         0.4610768810       -4.4254951362        5.5373864464
  H         0.1023232204       -5.2185286612        5.0458757569
  H        -0.2702358312       -3.9167743786        5.9237698103
  O        -3.3332723615       -3.9565138975        0.9844458838
  H        -4.2065150029       -4.1452015375        0.5243723149
  H        -3.0059665000       -3.1920667264        0.5908033723
