     192
 i =     2700, time =     4050.000, E =     -1100.0697923114
  O         5.3783491691       -3.6578729206        4.5188335441
  H         5.9566655377       -4.3748576425        4.2946936517
  H         5.9240909093       -2.9132973878        4.8796764108
  O        -2.8781501262        3.1021373504        4.4532364518
  H        -3.5781483491        2.4406147203        4.1837007676
  H        -2.4097522857        2.6063852162        5.2127215179
  O         7.1287767483        3.5721982001        5.8020250936
  H         6.5917128000        3.2393221117        5.0770817791
  H         8.0163932940        3.5294101763        5.4919525912
  O        -2.1689460717       -0.7720972508       -3.1085442245
  H        -1.9290549695       -0.8474697068       -2.1970403850
  H        -1.3808318633       -1.2139661676       -3.5681583917
  O        -2.4744447270        5.9969844371        4.8484838032
  H        -2.8515535301        5.1622825124        4.5130389337
  H        -3.0894372504        6.7014955907        4.5987481401
  O         8.1503728875        0.7411954504        3.8069921412
  H         7.9006682760       -0.0421371814        4.3134624180
  H         7.4925079147        0.7523075377        3.0305540102
  O         4.1353663645       -5.7242374143        0.6310092856
  H         3.8976552766       -4.8050593489        0.9256368276
  H         3.3282480762       -6.0384708683        0.2094310411
  O        -0.8820940366       -3.8081653863       -1.3129269784
  H        -1.3440456204       -4.1130933914       -2.0964904741
  H        -1.3123498192       -2.9705060585       -1.0672058018
  O         3.6302253055       -1.4845309347        3.8133149377
  H         4.0071619509       -2.2333491895        4.2504393180
  H         2.9567258262       -1.8715030465        3.2029381502
  O         3.3094752077        3.9007947542        5.6892056865
  H         2.6537765615        3.2155217476        5.6729614700
  H         3.1430005198        4.3171294872        6.5462049660
  O         4.8183103256       -4.8819210476       -2.6741199461
  H         4.8919214947       -4.4194077799       -3.5420348204
  H         4.2198650293       -4.2663286208       -2.1862510558
  O         3.1381956100       -3.1454277740        0.7449412189
  H         2.1744343011       -3.4557692201        0.9784378199
  H         3.0709143149       -2.8522834822       -0.1517382856
  O         1.5733353505       -5.4946395418       -5.1639185906
  H         1.8033542837       -6.4197235713       -4.9624148327
  H         0.9563809166       -5.4281384201       -5.9122848664
  O         4.4919853656        4.8750850543       -2.3890710636
  H         5.2429506621        4.3034291930       -2.1696208658
  H         4.7707534350        5.8069074053       -2.3270177366
  O         2.0268172656        0.5499426545        4.7471733747
  H         2.8352718711        0.0598135109        4.8408020680
  H         2.0365179538        0.7823933586        3.8353954763
  O        -1.6508107449        2.0798799242        6.6693343784
  H        -0.8531506728        1.5443367102        6.7544357326
  H        -2.2584651279        1.7159004415        7.3711899857
  O        -1.0503232320       -3.3789248395        3.2043780962
  H        -0.5626344593       -3.6386443932        2.4377000693
  H        -0.4812285711       -3.6585011044        3.9312863538
  O        -1.6382142451        4.0267863342        2.3749999304
  H        -1.1209151602        3.2852279002        2.0265150000
  H        -2.0394336174        3.5449418605        3.1387545056
  O         0.8308236716        0.9404780910       -5.2359342220
  H         1.1731138710        0.9298983023       -6.1631216269
  H         1.5627715961        1.3512049754       -4.6918464775
  O        -1.5768060028       -1.3229765196       -0.2849258838
  H        -1.7155124291       -1.2335620637        0.6835880396
  H        -0.6710963818       -0.9586091835       -0.3064618180
  O        -3.8209110373        3.6521556128       -2.0963513772
  H        -4.1156544952        4.5168206741       -2.5046923872
  H        -2.9533516158        3.8512686110       -1.6707458994
  O         5.9111145918        3.9709889055        1.1614034692
  H         5.5718203793        4.3447411773        0.3879217845
  H         5.4416741395        4.2301321175        2.0066217518
  O         4.9662380356        1.2099429583       -3.7735858763
  H         5.5214376006        1.1808914869       -4.6106420307
  H         4.9618853049        0.2968965762       -3.4225240222
  O        -4.4175293162        6.0643086557       -2.9584448734
  H        -5.0331742572        6.4703100443       -2.3270080638
  H        -4.9588287019        6.1126788557       -3.8514325940
  O         5.2585794532        0.2044181899       -0.2256745579
  H         5.5220437220       -0.2499881419        0.5658725454
  H         5.9837758690        0.8878735731       -0.3448681862
  O         1.1691115974       -0.6574160470       -0.1631447409
  H         1.5618785501        0.2662877946       -0.2133532330
  H         1.6823780539       -1.1761940304       -0.7814426782
  O        -5.5564077857       -5.7153902004       -0.3178947657
  H        -5.0973948246       -6.2880659022        0.2977470063
  H        -6.3502319433       -5.4804981494        0.0410498542
  O        -4.0940429978        5.0611723127        1.8480829626
  H        -4.7489564164        4.3850883416        1.5882552558
  H        -3.2142738214        4.6002422079        1.9282541154
  O         7.0449728938        1.1367375424       -5.4119841636
  H         7.6482448695        1.1777889013       -4.6513641558
  H         7.1176152577        1.9093733990       -5.9928960260
  O         3.1141421941       -2.3240715059       -1.8512742826
  H         4.0630821689       -2.2282963036       -2.1161275938
  H         2.5975845408       -2.6796367699       -2.6422973793
  O         2.8989976678        1.3631554745       -0.3684047059
  H         3.7998704377        0.8632350709       -0.2322611063
  H         2.9832995648        2.3118446193       -0.5652696351
  O        -2.0325423323       -0.8145534168        2.6099409477
  H        -1.7260147098       -1.5947046694        3.1194484842
  H        -2.6477604740       -0.3498061543        3.2500756310
  O         2.2682997819       -8.2832820737        1.9719094022
  H         2.2676103343       -8.2649017090        1.0036189428
  H         3.1482845745       -8.0357732904        2.1779165958
  O         1.2279596536       -3.4606731083       -3.3539971457
  H         0.6921899104       -3.6824106187       -2.5742362860
  H         1.3472756795       -4.2639214472       -3.9388556564
  O        -4.8673217411        1.4958326140        0.4770763202
  H        -3.9919005035        1.7906585148        0.1535526391
  H        -5.2912075418        2.2044070726        0.9369245037
  O         4.5383308765       -4.8781890802       -5.5360879869
  H         3.5590192822       -5.1137880863       -5.4268842713
  H         4.7047312465       -4.5451520932       -6.3660387677
  O        -0.4283359891        2.2080379615       -2.4973867649
  H        -0.6311665427        1.9196711448       -3.4009856916
  H        -0.4043126114        3.1520013127       -2.5070824465
  O        -4.7470030447       -5.0394229722        3.6134724266
  H        -4.6657042328       -4.1423466090        3.1730911606
  H        -4.5496302140       -5.5892745964        2.8466477609
  O         4.5951245120        4.6769448190        3.3215188720
  H         5.0252749125        5.4823900611        3.6016642713
  H         3.9256527914        4.4603094098        4.0095782843
  O        -3.3926134600        1.4257553908       -3.8030244798
  H        -2.9753438041        0.6556871489       -3.4514046989
  H        -3.6319575376        2.0564723679       -3.0519191334
  O         2.1385404355        1.5727469284        2.2698476867
  H         2.1009865797        2.5173325359        2.5129897972
  H         2.4565442673        1.5707349693        1.3131377014
  O        -6.4866732480       -0.8743444534        2.1077394102
  H        -7.3347873370       -1.0849783721        2.6699199492
  H        -5.8569164394       -1.5613947565        2.2922754749
  O        -0.4797571190        1.6543732002        1.7651694606
  H         0.4670855495        1.5887803022        1.9509150009
  H        -0.9616570741        1.1402251178        2.4486172530
  O        -2.0080779839        6.0732455412       -0.2382378146
  H        -2.4025228237        5.3553150134        0.3249499157
  H        -2.5748666490        6.8973217798       -0.3056348198
  O        -0.2894046063       -1.7187193233       -4.7060465988
  H         0.2596009423       -2.3679452386       -4.2295564864
  H         0.2997371139       -0.9707692212       -4.9225594156
  O        -6.5398123846        2.7539572581       -1.7581830411
  H        -5.5612594341        2.6781396324       -1.6041600413
  H        -6.7493320430        2.1199814569       -2.4832567248
  O         5.4506518310       -1.2280192638       -2.5302578938
  H         6.2556645934       -1.6613650530       -2.7102500029
  H         5.5166791749       -0.8268906780       -1.6692104491
  O        -2.1356207896        2.3138588744       -0.4429143457
  H        -1.6442569973        2.0444166959       -1.2602053983
  H        -1.4954266779        2.2121158225        0.2488428532
  O        -0.2685646314        4.8748710332       -2.2024673285
  H        -0.4747997276        5.1258292276       -3.0510712425
  H        -0.8214657355        5.4904013710       -1.6072468731
  O         7.3434979683       -1.3941543402        5.3800920524
  H         7.4374521032       -2.1827857943        5.9901028632
  H         7.1431705915       -0.7433523904        6.0609453619
  O        -1.8611926599       -5.3815936357       -3.4424297994
  H        -1.7333017521       -6.2073333538       -3.9806933643
  H        -2.7216262056       -5.6103889063       -3.0717384808
  O        -4.4225220336       -2.2013914405       -2.8831693104
  H        -4.5479814100       -2.8937973323       -3.5268685936
  H        -3.5623770999       -1.7723068436       -3.0099083596
  O         2.4444458447        4.2211751480       -0.7599796388
  H         1.5884608155        4.2422483715       -1.2343280714
  H         3.1802472506        4.4721663769       -1.3760655484
  O        -4.7410398769       -3.5624875063       -5.4858653589
  H        -3.7489722619       -3.5449317667       -5.5962310278
  H        -4.9781286593       -4.5172402880       -5.6304970497
  O         0.3535016976        5.7393862206        2.8746777513
  H        -0.4609244894        5.2026539671        2.7469328894
  H         1.1191621252        5.1880143385        2.6331860414
  O        -2.0581172236       -3.9230020765       -5.6681435816
  H        -2.0501837604       -4.4549678778       -4.8514656574
  H        -1.4720953732       -3.1647445869       -5.5056253045
  O        -4.2818508801       -2.5597276345        2.1501247481
  H        -3.5077229034       -2.0288262061        2.3995345273
  H        -4.1896613020       -2.6876331761        1.2023576319
  O         2.4852764438        4.5871684376       -4.2070192613
  H         3.4080542586        4.5709397446       -3.8181829091
  H         2.2104198644        3.6674880129       -3.9655444562
  O         2.5691198647        2.1630500297       -3.5085847088
  H         2.2297764467        1.7276415264       -2.6961071837
  H         3.4985129613        1.8528852927       -3.5908658789
  O        -1.6296183358        4.8761583913        7.3093880239
  H        -1.4661375964        3.8802202627        7.1325283492
  H        -1.9629834853        5.2584541597        6.5034239741
  O         0.5770828093       -4.3756164379        1.0917722941
  H         0.2526038530       -5.2023441567        1.4119488148
  H         0.0570666997       -4.1854018785        0.2491319583
  O         6.8541106907        6.1877562647        7.0387453047
  H         5.9499605923        6.5450664579        7.0936679386
  H         6.6817214545        5.4950237298        6.3630465938
  O         0.0844293124       -4.8698223502        5.3061026690
  H         0.1964723810       -5.5139595463        4.5987656735
  H        -0.8943612113       -4.8403608056        5.4976628892
  O        -3.8136672100       -3.5865595797       -0.5497331201
  H        -4.5737763429       -4.1429430854       -0.4601289025
  H        -3.9503562554       -3.0353009594       -1.3016852445
