6
Properties=species:S:1:pos:R:3 i=0 time=0.0 E=-34.4504806384 pbc="F F F"
O       -0.10038536       5.69392517      -3.22554649
H       -0.45565307       5.86414606      -2.34685502
H        0.38209454       4.86455916      -3.15142383
O       -2.36919277       5.34203815      -5.15629414
H       -2.30614379       5.97605008      -5.87614044
H       -1.60684078       5.52392134      -4.58518386
