       6
 i =      525, time =      105.000, E =       -34.4500672338
  O         2.5087577691        4.2453844656        3.8742792955
  H         2.2416837895        5.1779383901        3.9668326201
  H         1.8269956784        3.8843940920        3.2835905872
  O         5.3362604032        4.2342227718        4.1292252889
  H         5.5916310225        3.8672904757        4.9964133392
  H         4.3320673325        4.1871011442        4.1028357914
