       6
 i =      325, time =       65.000, E =       -34.4463134833
  O         2.7240742522        4.3028900431        3.2914006174
  H         2.1148539376        5.0324520266        3.4973737017
  H         2.7450125912        4.2743754275        2.2961003276
  O         5.9248127291        4.2961795860        4.9464620570
  H         6.0870591266        3.3578531835        5.1857970605
  H         5.2817963365        4.2673256398        4.2466994795