       6
 i =       75, time =       15.000, E =       -34.4481276193
  O         2.4790189590        4.1976567382        4.2899568399
  H         2.2090546643        4.8349934759        3.6008716723
  H         2.1074544175        3.3410507155        4.0805096796
  O         5.4529270841        4.2349618095        3.6980161468
  H         6.1963434475        4.3576661159        4.2870670825
  H         4.6633526283        4.1703438940        4.2809860189
