6
Properties=species:S:1:pos:R:3 i=0 time=0.0 E=-34.4504806384 pbc="F F F"
O        4.65747207       1.49012253       4.35000000
H        4.63237874       2.20919090       3.71000000
H        3.81587030       1.03295795       4.25600000
O        6.88275031      -0.39030555       3.63500000
H        7.50181200      -0.47967908       4.36500000
H        6.20393154       0.22799056       3.94700000
