     192
 i =     2800, time =     4200.000, E =     -1100.0488520019
  O         5.8827966208       -3.3245501291        5.0460889150
  H         6.2213380970       -3.9082976329        4.3704512369
  H         6.6152044117       -2.7351138342        5.3016054187
  O        -3.2105786399        2.4680271701        4.9349019738
  H        -3.2715420577        1.6763552686        4.3651366437
  H        -2.7467221381        2.1735257940        5.8238626246
  O         6.8841092693        3.6021845222        5.3746701953
  H         6.2548425378        3.8406885030        4.7042476694
  H         7.6810438914        3.2428033743        4.9434772983
  O        -2.4294804002       -0.8318934718       -2.7531732442
  H        -2.2031064787       -1.0524835203       -1.8438781692
  H        -1.5774141267       -1.0124766656       -3.2117882480
  O        -3.3434694103        6.0695752432        5.1659438036
  H        -4.0174909672        5.4090222836        5.1396484681
  H        -3.7985008716        6.8438229114        4.7220473272
  O         8.8111231270        0.2944460038        3.3344789200
  H         8.0665433891       -0.1304312127        3.7185619714
  H         8.4415659712        0.5980503251        2.4515042732
  O         4.6183539794       -5.5945985850        0.4620253270
  H         4.3096129028       -4.7415027642        0.8682053844
  H         3.8058757388       -5.9526261115        0.0378127403
  O        -0.5686205568       -3.9950084368       -1.6010299945
  H        -1.2752452874       -4.4286827734       -2.1130878223
  H        -0.9098738603       -3.0961707146       -1.3276394820
  O         3.2995183785       -1.6419592803        3.5612983164
  H         3.9984769429       -2.1724004837        3.9311830838
  H         2.9984386523       -2.0826713526        2.7754584753
  O         3.4344349584        3.1333416573        5.1655412866
  H         3.5913384817        2.1622138453        5.2615096744
  H         3.1752607944        3.5100772117        6.0375305257
  O         4.8862782179       -4.4368366001       -3.3310680401
  H         4.5972036380       -4.3278744321       -4.2614183375
  H         4.2374855792       -4.2009281085       -2.6707059511
  O         3.0436134918       -3.4164968327        1.1085487064
  H         2.1112686639       -3.8106570343        0.9486841761
  H         3.2514798724       -2.9199005027        0.3010805664
  O         1.6438832715       -5.6282627641       -5.2895883175
  H         1.6344223147       -6.5870454124       -5.1795069827
  H         0.9147687222       -5.4549992479       -5.9619003007
  O         4.1318180075        5.2540354759       -2.7601340749
  H         4.7650589991        4.7003041738       -2.2525462046
  H         4.5011857792        6.1468032350       -2.8504818528
  O         2.3966755651        0.5246877638        4.8344457168
  H         2.9073864783       -0.2866018491        4.4406562043
  H         2.2162741332        1.1017782624        4.0751348997
  O        -1.5902251987        2.4543620693        7.4794441629
  H        -0.9233877821        1.8981523685        7.0741609339
  H        -2.3856980897        2.0238405244        7.8862967825
  O        -1.1756544746       -3.5667134864        2.8518462438
  H        -0.5826434819       -3.8088996719        2.2182203046
  H        -0.8532931885       -4.0014116232        3.6505956978
  O        -2.0594181598        3.8339686131        2.9522477970
  H        -1.4201017659        3.1188587420        2.7138759322
  H        -2.4406955500        3.6748837928        3.8585218259
  O         0.5055304622        0.6770703831       -5.6005681681
  H         1.0271720362        0.4776208109       -6.4234770187
  H         1.2177616868        1.0563667473       -5.0811036045
  O        -1.2308901129       -1.5274131369       -0.4639235462
  H        -1.8128639288       -1.4650197898        0.3495425031
  H        -0.4196074113       -1.0550546378       -0.2450696294
  O        -3.7819262358        3.5255498009       -1.8043381870
  H        -3.7438923362        4.3928747487       -2.3229837119
  H        -3.3186334997        3.8203320674       -1.0205929851
  O         6.3545808586        3.8941468411        1.2924500857
  H         5.8824322169        3.5655457296        0.5304017978
  H         5.6484244484        4.2735371739        1.8202635535
  O         4.9921083733        1.1642820926       -3.4040040793
  H         5.6321336706        1.2115676286       -4.1364192050
  H         5.1538953025        0.2989971625       -3.0320966966
  O        -4.2864544275        5.9552732349       -3.2519170332
  H        -4.8606281902        6.3119810557       -2.5265208725
  H        -4.8795111860        5.8697433761       -4.0908532681
  O         5.3166068354        0.6144207357       -0.0475004599
  H         5.2246315062       -0.0213859061        0.6891177560
  H         6.1547617284        1.1368382166        0.0494869277
  O         1.1345410665       -0.2471850775       -0.3045397633
  H         1.2865819844        0.6635944631       -0.7127153019
  H         1.9668262271       -0.7111893112       -0.5358092267
  O        -5.4650426714       -5.9888572415       -0.6595278036
  H        -4.7234082243       -6.2813275026       -0.1025393096
  H        -6.2314487122       -5.9657122785       -0.0596284248
  O        -3.8701880605        5.3980100954        1.8741039177
  H        -4.6114457159        4.7670736426        1.7223456752
  H        -3.2224386235        4.8648569739        2.3512635720
  O         6.6927366076        1.2994933228       -5.5060107894
  H         7.4559821104        1.3944638709       -4.9952010053
  H         6.7805153058        2.1344597791       -6.0158966459
  O         2.9947772643       -2.0071143186       -1.4366608657
  H         3.8831402941       -1.8249163262       -1.8047879192
  H         2.5216408853       -2.5453880162       -2.0654479021
  O         2.6661968503        1.9604279058       -0.9185724320
  H         3.6031270998        1.7389824356       -0.6047372118
  H         2.6763223165        2.9279385805       -0.6298437959
  O        -1.8741557246       -1.2390059920        2.0152126555
  H        -1.4909929754       -2.1220495203        2.2255779300
  H        -2.3948096885       -0.8699908675        2.7394641659
  O         2.5072418080       -8.2298568863        2.1783508990
  H         2.7867655557       -8.1197826476        1.2179091952
  H         3.2398719162       -7.9963868232        2.7236905361
  O         1.3973159695       -3.3546482639       -3.5022912291
  H         0.6228252325       -3.7259463610       -2.9107685491
  H         1.5508802709       -4.1461297408       -4.0351697525
  O        -4.4057413164        1.4434810042        0.9695184405
  H        -3.4556155136        1.6752277860        0.6504087908
  H        -4.6966277332        2.2445598340        1.4862888316
  O         4.5995071575       -5.0237173977       -6.1564820669
  H         3.6556061551       -5.1167698247       -6.0767094173
  H         4.9951152964       -4.2706292954       -6.5243935933
  O        -0.1646890381        2.4237773387       -2.4102007064
  H        -0.3880464596        2.4349353860       -3.3426045869
  H        -0.1737540463        3.3898495622       -2.2042950483
  O        -4.6652732073       -4.7633477767        3.3593512414
  H        -4.4709108290       -3.8553368911        2.9091705066
  H        -4.3934549689       -5.4563263750        2.6933107594
  O         4.8718268752        4.4862289579        3.7121024968
  H         4.6530559347        5.2906843684        4.1952820275
  H         4.3850288821        3.8202828444        4.3671096082
  O        -3.6837889192        1.3941894227       -3.6419049641
  H        -3.2622349297        0.5787609639       -3.2295383123
  H        -3.5075627235        2.0992022531       -3.0370236569
  O         2.0742386626        1.5993058509        2.3989048635
  H         2.1407060254        2.5369708188        2.3750240717
  H         2.6388243575        1.3301772094        1.6685938820
  O        -6.9411330989       -0.7832967522        2.1864786736
  H        -7.6677310957       -1.0759437883        2.7213285932
  H        -6.1807981576       -1.3240430855        2.2688051683
  O        -0.4836199986        1.3489997638        2.1093634495
  H         0.4948094866        1.3711008055        2.0698257625
  H        -0.5343612039        0.3801846604        2.2339344710
  O        -2.2956563032        6.2063943691       -0.1844925924
  H        -2.6877878661        6.1110601984        0.7322025999
  H        -2.5396281532        7.1562993694       -0.3123195088
  O        -0.5656853157       -1.5191328001       -4.2101379072
  H         0.1266641307       -2.1425743588       -3.9614037872
  H        -0.1170132819       -0.8071209771       -4.7707169802
  O        -6.6825614212        3.3782431753       -1.5828003603
  H        -5.7539765596        3.4748625820       -1.5829791397
  H        -6.9114848347        2.6491317983       -2.2364251522
  O         5.4364080644       -1.3361700940       -2.0105201855
  H         6.1321082756       -1.9623313364       -2.0461616230
  H         5.8047502464       -0.7490007510       -1.3060599550
  O        -2.0772169450        1.9853910729        0.1745172857
  H        -1.6524972496        1.9303350870       -0.7077393615
  H        -1.4482870433        1.5195634128        0.8229183727
  O        -0.2263960065        5.1189371334       -1.8466371350
  H        -0.4279942199        5.8213557713       -2.5180887255
  H        -0.7783436439        5.3402821025       -1.1051388379
  O         7.8406912588       -1.2443032322        5.2487059465
  H         8.6832684490       -1.5196238306        5.6070842472
  H         7.5289831405       -0.5231659723        5.7582422676
  O        -2.1517454459       -5.1292294554       -3.5624949848
  H        -1.6941862400       -5.8282604532       -4.1400733798
  H        -3.0654539878       -5.4851001500       -3.5055236811
  O        -4.4635061435       -2.6243235982       -2.8526948782
  H        -4.5647069836       -3.0790123057       -3.7060486091
  H        -3.6628308110       -2.0098693818       -2.9888619747
  O         2.6134696448        4.9728864872       -0.5669340858
  H         1.6444743481        4.9349541072       -0.8570910777
  H         3.1400208797        5.0752812974       -1.3935215372
  O        -4.3734156324       -4.1142838535       -5.2420322998
  H        -3.6617030687       -3.6580684492       -5.6410929519
  H        -4.3208713850       -5.0132984753       -5.6052015496
  O         0.2524199224        5.7846936517        2.1838913490
  H        -0.4205628638        5.0875851871        2.3427185911
  H         1.1115200369        5.3661271724        2.4055099622
  O        -1.7497370496       -3.2217856277       -5.7192308947
  H        -1.9153103937       -3.7742578312       -4.9185450353
  H        -1.2718129372       -2.4961573946       -5.2699524495
  O        -4.4811776204       -2.5124906043        1.9233670899
  H        -3.6271786147       -2.0720942001        2.1122904999
  H        -4.4393172839       -2.8722859152        0.9719087498
  O         2.4396439868        3.9807923388       -4.6597810793
  H         2.9417441120        4.4145261700       -3.9758324595
  H         2.4434821307        3.0150064607       -4.3533366869
  O         2.3421390274        1.3902705647       -3.8443065829
  H         2.0664341962        1.5118570402       -2.8826305272
  H         3.2813731019        1.2312014947       -3.8475575091
  O        -1.4203687172        5.4575526367        7.1432948160
  H        -1.2967750455        4.5542441445        7.3303871205
  H        -2.0288678296        5.6319746468        6.4321663625
  O         0.5485322632       -4.2980197141        0.8311910872
  H         0.4881127144       -5.1828185528        1.1611178669
  H         0.1973044169       -4.4063412885       -0.1038827305
  O         6.5508120040        5.7800214562        7.2295194128
  H         5.7279939764        6.2777020650        7.0971248091
  H         6.5253318416        5.0584086504        6.5132575000
  O        -0.3655528332       -4.9172543792        5.0647664612
  H        -0.8084215279       -5.7950353927        4.9980864683
  H        -0.8774794556       -4.3380128896        5.6633138263
  O        -4.0162405238       -3.7163088652       -0.3995283691
  H        -4.7765228528       -4.2931351351       -0.5555124087
  H        -3.8959879336       -3.1820492629       -1.2415113108
