     192
 i =     1800, time =     2700.000, E =     -1100.0876102471
  O         5.2429857640       -4.3972196493        4.7856970982
  H         6.1122560063       -4.7621971790        4.7426008672
  H         5.1906500690       -3.5472369064        5.2664419488
  O        -4.0419194176        2.4126076590        5.1398067225
  H        -4.3198627430        1.6530827514        4.4943895422
  H        -4.0421366840        2.1234688157        6.0963755545
  O         3.8935217967        2.3662682659        4.4189731661
  H         3.4027866891        3.0307952264        4.9392284084
  H         4.2617488823        2.7948948197        3.6287255194
  O        -2.0849111117       -0.1592856452       -3.2603300968
  H        -1.5885735894        0.2075052740       -2.5291373687
  H        -1.4422344617       -0.7388795619       -3.5918224519
  O        -4.6539210642        5.1505985353        5.7261914129
  H        -4.5675037499        4.2054422911        5.3077213141
  H        -4.6746860325        5.7672442309        5.0152470593
  O         8.0210617089        0.4899115282        3.2362413941
  H         7.3588278928       -0.2213695771        3.1664505018
  H         7.8997713773        1.0988400335        2.5027022550
  O         4.7109727749       -5.1774511488       -0.0001881141
  H         4.1920689344       -4.5882280633        0.5901909767
  H         4.7816464340       -4.6601406367       -0.9249346156
  O        -0.7144829240       -3.3634518385       -1.5228382189
  H        -1.5985226498       -3.3552330590       -1.8991298507
  H        -0.5757141353       -2.4457364591       -1.2059908982
  O         3.7432307385       -2.5722878689        3.1531536544
  H         3.8922187232       -3.4711858491        3.5083229787
  H         3.3663215497       -2.5891627379        2.2643258098
  O         2.2469473967        4.3111620482        5.6004193940
  H         1.4323099114        3.7892096463        5.4761359772
  H         2.5528992042        4.3236385220        6.5410545403
  O         4.9214122347       -3.7075546369       -2.1125091270
  H         4.6436920192       -4.2651827414       -2.8753497097
  H         5.6299096762       -3.0625050912       -2.3398627717
  O         2.6514412678       -2.8250647489        0.5290772694
  H         1.8797306698       -3.3485692314        0.7677772854
  H         2.7987959417       -2.5040227177       -0.4137919606
  O         1.8216248845       -5.5026920884       -5.1169377476
  H         2.2044196810       -6.3882179560       -5.0289608586
  H         1.0969332918       -5.4604875385       -5.7679570693
  O         5.1090073494        5.3362998501       -2.6862257970
  H         5.4248509584        4.7211723112       -2.0204887750
  H         5.9135848662        5.6901981558       -3.1299732946
  O         1.6546877962       -0.9200880043        4.4619775485
  H         2.3952607755       -1.5598183649        4.3781510530
  H         1.9823285400       -0.2215918039        3.8182774852
  O         0.0312930712        2.7288407889        5.3483102468
  H         0.1250958914        1.9395602261        5.9242074104
  H        -0.3015005884        2.3520060474        4.4976031627
  O        -0.6690187889       -2.3524725262        3.0432937260
  H        -0.3591237814       -2.9654483344        2.3704483788
  H         0.0394236831       -1.9499837021        3.5170269362
  O        -2.7781457430        3.3508181899        3.0514874006
  H        -1.9944173813        3.0124607681        2.5621736254
  H        -2.8525466813        2.8602374294        3.9127674584
  O         1.0413972714        0.4082172466       -5.7117694877
  H         1.4207220982       -0.0258029171       -6.5002079875
  H         1.7937247117        0.7384108083       -5.1756096336
  O        -0.1513884886       -0.7169175840       -0.5093444317
  H        -0.6685881460       -0.5711057187        0.3016081177
  H         0.6584927321       -0.1876945880       -0.5442704389
  O        -3.9319068633        3.6193266070       -2.4896522791
  H        -3.8536451286        4.5751186280       -2.4761767857
  H        -3.1146982778        3.3336650139       -2.0290917070
  O         4.8442124522        3.5658149562        2.3421943989
  H         4.1271632859        3.3099833260        1.6776904749
  H         4.4673317351        4.3287229123        2.7864309672
  O         5.5347494342        0.6697759805       -3.5350908149
  H         5.7300394397        0.8825885144       -4.4621246513
  H         6.1671743104       -0.0148667163       -3.3127633278
  O        -3.9894321172        6.4143283236       -2.5532873161
  H        -4.5207775665        6.3766194427       -1.7447618253
  H        -4.7278867899        6.6908761812       -3.1183542757
  O         5.8452741785       -0.5933392783        0.2485341321
  H         5.9335360468       -1.1754954493        0.9931636859
  H         6.3138453836        0.1695021272        0.5713359777
  O         2.2164343237        0.5502433602       -1.2134955124
  H         2.9330653676        1.1301946964       -0.8620188174
  H         2.5849033151       -0.3518783674       -1.4360041592
  O        -5.3018479151       -6.1136057036        0.0517322957
  H        -5.1459218665       -6.7512239784        0.7501059098
  H        -6.1774338913       -5.7235386577        0.2621283496
  O        -5.0672238427        4.3519056333        2.1691754488
  H        -6.0147571526        4.0752028743        2.2606053001
  H        -4.3634873903        3.7188764959        2.5273867550
  O         5.6091350441        0.7904179860       -6.3532540326
  H         6.3605497137        1.3048672999       -6.5503144263
  H         4.9291760632        1.1260829740       -7.0270530954
  O         2.8943056529       -1.8171635174       -2.2564950149
  H         3.6269942833       -2.4989048268       -2.2450773733
  H         2.2347977615       -2.3678607211       -2.7485952343
  O         3.8919675735        2.5157582067        0.1528786194
  H         4.8203428368        2.4490503587       -0.0682596102
  H         3.6311397127        3.2782994856       -0.4417136777
  O        -1.7824814491        0.2910235107        2.4597818686
  H        -1.4554648697       -0.6462097694        2.5463438308
  H        -2.7514911759        0.2591042665        2.6705688237
  O         1.5536589064       -7.8031762431        2.1432680758
  H         1.7207700769       -7.5458371312        1.2298472763
  H         2.1861738472       -7.3837897370        2.7816978894
  O         1.1447662376       -3.3512547147       -3.5157034429
  H         0.4945454743       -3.5349481401       -2.8069478072
  H         1.4569705218       -4.1568909666       -4.0146341417
  O        -4.3302776144        1.7675670680        0.6632866494
  H        -3.8171951299        1.2757047035        0.0077508853
  H        -5.0014938814        2.2365297908        0.0844047171
  O         4.3244649665       -4.3841552037       -4.7368689868
  H         3.5302961761       -4.5845189533       -5.2259110553
  H         4.5066083526       -3.4524363703       -4.9982454510
  O         0.2815496254        3.6125379721       -3.4298149847
  H        -0.3081787869        4.0299152643       -4.0634187175
  H         0.5075597526        4.4038490402       -2.9024153306
  O        -5.0828489227       -5.7348148498        3.6743638781
  H        -4.4275823535       -5.0985496064        3.3177837738
  H        -5.2771243624       -6.4042744940        2.9970543977
  O         3.8392971365        5.6208981860        3.7544646301
  H         4.2956091500        6.4347026980        4.0678159709
  H         3.2392557652        5.3350602259        4.4690173302
  O        -3.9675210163        1.7414542199       -4.6210754242
  H        -3.3316234568        1.1104448270       -4.3440217050
  H        -3.7509113601        2.5330404427       -4.0947678512
  O         2.3249791126        0.7523390049        2.5718895472
  H         2.7878087494        0.5490705018        1.7590120606
  H         2.8341482299        1.5108819983        2.9554779999
  O        -6.0674678910       -1.5660773989        2.6341124878
  H        -6.9795863051       -1.7436237414        2.8928773573
  H        -5.7596372156       -2.4080508841        3.0243825644
  O        -0.4230031110        2.5027672966        1.3536491711
  H         0.4910085817        2.5535377856        1.6495280534
  H        -0.7884533603        1.6862617839        1.6887320965
  O        -1.2257860565        5.7359620979       -0.1429134773
  H        -1.0565768912        5.1962545131        0.6389553049
  H        -1.9588610546        6.3804661566        0.0918980830
  O        -0.5452839006       -1.6733559216       -4.8542697164
  H         0.1286499539       -2.2460881733       -4.4919565901
  H         0.0304072689       -0.9442332754       -5.1527415199
  O        -6.1630842603        2.7587606315       -1.5340509369
  H        -5.2851128923        3.0612989259       -1.8969793002
  H        -6.4296989302        2.1012765086       -2.2079042016
  O         6.5042627232       -1.6707513208       -2.1829383940
  H         7.4838945520       -1.7620528144       -2.1041692973
  H         6.2455287029       -1.2553111533       -1.3261093696
  O        -1.5107268418        2.1749138505       -1.6845771664
  H        -0.9734946419        2.7350639505       -2.2964566425
  H        -1.1573565306        2.3446164261       -0.8161803280
  O         0.7083360258        6.0538611524       -2.0466760596
  H         0.5036927713        6.6138270674       -2.7989157608
  H        -0.0509288257        6.0677723036       -1.4384372505
  O         5.7243138403       -1.9619643939        6.6297042289
  H         6.5885323716       -2.2355802213        6.8575320857
  H         5.6105618433       -1.0369728843        6.5797978781
  O        -1.5170619787       -5.6626697020       -3.9332609553
  H        -1.5122567415       -6.4258704998       -4.5473578224
  H        -2.2013692201       -5.7918613588       -3.3309120376
  O        -3.3626593947       -2.6979111766       -2.4732645681
  H        -3.7121390375       -3.0700738990       -3.3317947167
  H        -2.8698938881       -1.8805178931       -2.7725878063
  O         2.8242097541        5.3418823339       -0.4017607316
  H         2.3803699824        5.7888922914       -1.1407343068
  H         3.6377356910        5.7663062078       -0.2691309519
  O        -4.4261645534       -3.2087835072       -4.9360875604
  H        -3.5676031776       -3.2737137989       -5.4200517193
  H        -4.7826674813       -4.0834425731       -4.8686479399
  O        -0.6594225246        5.5610797734        3.2426991410
  H        -1.3515187033        4.9250847077        3.2465164913
  H         0.0666405046        5.1739117618        2.7749604168
  O        -1.9469804592       -3.7193624059       -5.9060201711
  H        -1.8176046803       -4.2314837899       -5.0865105317
  H        -1.4191693232       -2.9107523960       -5.6974444043
  O        -3.3484604904       -3.5232252511        2.9562131303
  H        -2.4228294269       -3.3273330181        3.2024170462
  H        -3.2151419270       -3.5284746336        2.0215455336
  O         3.1757779796        4.2699503835       -4.2684509011
  H         3.9442326529        4.5738519143       -3.7712119479
  H         2.9897959556        3.3912214525       -3.9207045659
  O         2.7524995006        1.3562823128       -3.9215246004
  H         2.3488870520        1.0776534440       -3.0541868576
  H         3.6133067454        0.8679263069       -3.9130001764
  O        -1.7830163584        4.6383891903        6.6176929634
  H        -1.1516491913        4.2423809312        6.0009415762
  H        -2.6898702207        4.6649314243        6.2498634815
  O         0.1079601236       -4.2527780839        1.1898377352
  H        -0.2529615111       -5.0277228302        1.6667710554
  H        -0.2176758647       -4.2903466004        0.2577921666
  O         6.5542714666        6.6395998916        7.8009266629
  H         5.7783725578        7.1827774781        7.6711448391
  H         6.6779181906        6.1040798910        6.9657556343
  O         0.0409128668       -5.0637885353        5.3570308506
  H        -0.3417621441       -5.8343056002        4.8776515378
  H        -0.7218792470       -4.5828476897        5.5927081506
  O        -3.0616567232       -4.7778231527        0.2234572009
  H        -4.0010917852       -5.1555721416        0.2978545218
  H        -3.0369054551       -4.2382866155       -0.6352609720
