       6
 i =      150, time =       30.000, E =       -34.4454200712
  O         2.8009400725        4.3213269407        3.3603745973
  H         1.9628862087        4.6689935832        3.6890320847
  H         2.4722883304        3.9358451058        2.5041044280
  O         5.9445035419        4.2979167148        4.8259770506
  H         6.4256620281        3.5156445512        5.2090429597
  H         5.0154704814        4.0213435088        4.7703746159