6
Properties=species:S:1:pos:R:3 i=0 time=0.0 E=-34.4504806384 pbc="F F F"
O        0.70865451       4.78191860       4.41203746
H       -0.07299614       4.99530694       3.89167539
H        0.86395344       3.84296938       4.26925931
O        3.04896109       6.33633230       3.36043814
H        3.43643829       6.87964636       4.05238919
H        2.30763030       5.87362396       3.78086488
