     192
 i =      600, time =      900.000, E =     -1100.0740249571
  O         5.0118341393       -4.8634911254        4.7586290767
  H         5.9606837887       -4.7836981612        4.7375458381
  H         4.5651044880       -4.4681265355        5.5040263063
  O        -3.2242357559        2.5563804915        4.8809358287
  H        -3.4797576624        1.7025229674        4.5516607469
  H        -3.1663782348        2.4332501387        5.8734773450
  O         6.3345199747        3.3787734717        5.5197825012
  H         5.4274949922        3.5474001571        5.2055258098
  H         6.5062453930        2.7131811509        4.7621311222
  O        -2.0880109374       -0.2012596230       -2.9915619282
  H        -1.4678542983        0.3978618351       -2.5568248865
  H        -1.5833218515       -0.9241927839       -3.4372839411
  O        -4.0557180470        5.0530997545        6.1465748322
  H        -4.7865545768        4.4930244983        5.8397723350
  H        -3.9355262562        5.8457573086        5.5760758116
  O         6.5821502599        1.3649016502        3.5930206636
  H         6.8030377408        0.4429174890        3.7025386194
  H         6.9656610440        1.5326709551        2.7307145387
  O         3.6890533645       -4.7983572520       -0.2733753302
  H         3.2423312444       -4.2635214080        0.3889224870
  H         3.6261090631       -4.4092254069       -1.1573765105
  O        -2.3582407284       -3.3974535860       -1.4650110333
  H        -3.0670373079       -3.1412806550       -2.0571559199
  H        -1.8176784957       -2.5582341898       -1.3449968576
  O         4.9995274420       -2.8688890021        2.6437193807
  H         4.9557833221       -3.5919854080        3.2686085008
  H         4.2392406234       -2.8794792667        2.0515743422
  O         3.7607636612        3.5455505975        4.4487245921
  H         3.4552367619        2.6528079124        4.1216717683
  H         2.9980797936        3.8723931455        4.9915940822
  O         3.6227096558       -3.2187584816       -2.7614704079
  H         3.7105286154       -3.5817748463       -3.6523351510
  H         4.2315513950       -2.4793477047       -2.7686133201
  O         2.5387717071       -2.8928484261        1.0859769373
  H         1.9611488861       -2.8662171758        1.8653222260
  H         2.0826790787       -2.5040858712        0.3222568663
  O         1.3461042139       -5.1596092196       -5.6389316884
  H         1.5990535472       -6.0983925571       -5.7763926320
  H         0.8670629700       -4.9224028442       -6.4270514607
  O         3.2990557848        3.8277763645       -3.6000266791
  H         3.9041340935        3.1040278237       -3.4986947575
  H         3.2401261146        4.2112858659       -2.7019239399
  O         2.8512731053       -0.8457955632        4.3294688780
  H         3.5751436884       -1.3121823900        4.7877426336
  H         3.2893777100       -0.2643287682        3.6618651659
  O         0.3862948167        2.1609862408        5.0800256014
  H         0.6305855115        1.3209811155        5.5177055826
  H         0.4778122767        2.0224988569        4.0883709844
  O         0.8551339220       -2.5064107534        3.3708910798
  H         1.5904190743       -2.0203216319        3.8589324134
  H         0.4822622144       -3.2023353913        3.9305934795
  O        -1.5295758967        3.6035391453        2.8099812688
  H        -0.9003374356        3.0682153872        2.3802401591
  H        -1.9937164826        3.0489295028        3.5473536796
  O         0.8553514946       -0.1768198885       -5.7075248323
  H         1.5149772892       -0.2918985606       -6.4095062188
  H         1.3499218449        0.2074962889       -4.9737646144
  O        -0.2939501095       -2.2364610369       -0.3267760347
  H        -0.3052376304       -1.7777243629        0.5163310645
  H        -0.4016480895       -3.1846215690       -0.0948258194
  O        -3.6563395823        3.4084562285       -2.7775134813
  H        -4.2797310108        4.1674043501       -2.4543841813
  H        -2.7404297449        3.6814481140       -2.7245274037
  O         5.9969781426        4.8554130537        1.4169208858
  H         5.4639396769        4.1359224158        0.9667179532
  H         5.2000627022        5.1781104310        1.9634548690
  O         4.9243442501        1.1888289557       -3.4616165840
  H         5.3481448718        1.1806945755       -4.3252539358
  H         5.0701703013        0.2886627336       -3.1133953108
  O        -4.9626264340        5.8255364664       -2.2327325407
  H        -5.4678886434        6.2826549676       -1.4871021778
  H        -5.3782244550        6.1692890067       -3.0784357037
  O         6.0170138689       -0.3710501648        0.3179060197
  H         6.4780187582       -0.8438589594        1.0626584317
  H         5.0646847046       -0.3438817594        0.5393745579
  O         3.2002631780        0.4911793251        0.2532470353
  H         3.4033475180        1.2845089846       -0.3028990170
  H         2.6506346266       -0.0424345466       -0.3530531621
  O        -5.9531750910       -5.5913691455       -0.0768592318
  H        -6.0285362401       -6.3898850231        0.5575309365
  H        -6.8088358982       -5.0659585438       -0.0214937794
  O        -4.0641048645        4.6944781123        3.1793753507
  H        -4.8246889474        4.4587509926        2.5506153904
  H        -3.9170143793        3.9365296671        3.7922040994
  O         6.3993760809        0.7787897395       -5.8464457550
  H         7.1453342285        0.6028133298       -5.2864595032
  H         6.5597630485        1.6786544403       -6.2344568651
  O         1.9463332737       -1.4559319384       -1.5243668337
  H         2.4377453772       -2.2108199069       -1.8316032264
  H         1.1057449970       -1.8314391051       -1.1227386502
  O         4.2377514063        3.2369837436       -0.0529613549
  H         4.9137502833        3.0775945015       -0.7275038811
  H         3.6641136183        3.9587847488       -0.3050259479
  O        -0.4733853154       -0.7446961317        2.1893501847
  H        -0.1357291073       -1.5042110445        2.7548968508
  H        -1.4143103497       -0.6789508208        2.4590244936
  O         1.6796072724       -6.2256009352        1.8742840679
  H         1.9075690909       -6.7664468924        1.1232541051
  H         2.4942446326       -6.2354593068        2.3990610073
  O         0.1307355368       -4.6864387816       -3.4393566400
  H        -0.7862532185       -4.9724142272       -3.5224662797
  H         0.5492836833       -4.9878976960       -4.3116262206
  O        -4.6768629860        1.6626279726        1.1392097958
  H        -3.9413592135        2.1622901609        0.7672508956
  H        -5.2119400012        1.3547722564        0.3863098278
  O         3.7947661231       -3.8616729563       -5.5305969123
  H         2.8537671455       -4.1792098425       -5.4951022104
  H         3.9330379936       -2.9106334493       -5.7629888914
  O        -0.7204149055        3.7313000128       -3.2502290237
  H        -0.7083542119        4.0159002344       -4.1898763643
  H        -0.4361583778        4.4616053705       -2.6864116405
  O        -4.7011990051       -5.3128281368        4.2759202337
  H        -4.1454049180       -4.6080000532        3.9251729044
  H        -4.5493289294       -6.0662687497        3.6774599280
  O         4.0939510488        5.7478096137        3.0008352311
  H         4.4414000766        6.4031055684        3.7060895086
  H         4.0279997928        4.8898555110        3.5345507956
  O        -3.4293733804        1.7191388187       -4.8477559647
  H        -2.8038447834        1.1801081692       -4.3792184985
  H        -3.6496774996        2.4373204888       -4.1427631565
  O         4.0200172157        1.0988382031        2.8317861536
  H         3.8257385413        1.0430349531        1.8765499084
  H         4.9679345258        1.1681218385        3.0083577821
  O        -5.2599083051       -1.0089838886        2.9742286547
  H        -5.9924631718       -1.6190378821        3.0623929393
  H        -4.4205153200       -1.4999323774        3.0313090086
  O         0.7512517379        1.8039087971        2.1571438112
  H         1.4914861495        1.8853798223        1.5560352887
  H         0.3212719028        0.9699033294        1.9962146884
  O        -2.6978718005        5.2776578910        0.1367052264
  H        -2.6152140570        5.0077042828        1.0828503283
  H        -2.9018122745        6.2211639279        0.2711076815
  O        -0.8074326814       -2.0579552534       -4.5588658324
  H        -0.2178796630       -2.7228132451       -4.1450294279
  H        -0.1547369084       -1.4795169463       -5.0482205563
  O        -6.1099747007        2.6751720752       -1.5843522036
  H        -5.3576458779        3.0664908156       -1.9081725782
  H        -6.3359249077        1.9875615312       -2.2652436716
  O         5.4510399710       -1.0266871813       -2.2778857200
  H         6.4104417799       -1.3018849788       -2.4351072544
  H         5.5683932639       -0.7987813993       -1.3341283612
  O         0.3616879163        1.7248579194       -1.2008996882
  H        -0.0369180883        2.3251036660       -1.8214470490
  H         1.0738321795        1.3806719221       -1.7171079932
  O         0.2199971938        5.7422439955       -1.4276132892
  H         0.1589668170        6.5887279558       -1.9730445535
  H        -0.4294024753        5.9254500770       -0.7314425529
  O         4.9724650558       -1.7062577640        6.4917447475
  H         5.8128407901       -2.2192438718        6.4601915962
  H         5.2539893493       -0.7831296090        6.4456295396
  O        -2.8195630754       -6.0973354186       -3.6919811006
  H        -2.5049572983       -6.9186759718       -4.0169732478
  H        -3.4784868964       -6.2668300182       -2.9821943793
  O        -4.2738642244       -1.8186782510       -2.9144514029
  H        -4.5891896762       -2.3308574801       -3.6834164134
  H        -3.6368766085       -1.1476087931       -3.1341362347
  O         2.6865733781        5.1803425722       -0.8284704667
  H         1.7880226146        5.4040520895       -1.1246832878
  H         3.1661884791        6.0280397645       -0.5708192537
  O        -5.1915946742       -3.2274414536       -5.6003677167
  H        -4.2859588568       -3.2544253612       -5.9447131642
  H        -5.4027162106       -4.0853382817       -5.1781395691
  O         0.2499609278        5.3870804835        3.9377349435
  H        -0.5077866517        4.8651785503        3.5852174360
  H         0.8912100847        5.5311782785        3.2124036066
  O        -2.4430588533       -3.8613051207       -5.7198336359
  H        -2.5164717608       -4.5876016448       -5.0157234826
  H        -2.0005159938       -3.0670881920       -5.3379790397
  O        -3.0524109830       -3.1303116884        2.8248897808
  H        -2.3298024471       -3.6969412182        3.0669383023
  H        -3.2079624958       -3.5849080482        1.9798447201
  O         2.2844806694        4.7476975833       -6.2093255703
  H         2.3514164857        4.2598627443       -5.3801140772
  H         1.4723699624        4.5319383216       -6.7169650056
  O         1.9352543855        0.7639530366       -3.3418083844
  H         2.0224140506       -0.0218977172       -2.7587317479
  H         2.8551577415        1.0815060048       -3.4092444552
  O        -1.0547104092        4.5427200876        6.5331152552
  H        -0.8556894766        3.7895043710        5.9591002247
  H        -1.9888664390        4.7601973712        6.1214109292
  O        -0.3360910816       -4.7236929908        0.6792914096
  H         0.5016534958       -5.1311262990        1.1181695945
  H        -1.1567703663       -5.0993739411        1.0681928909
  O         6.5440909457        6.6795963862        7.6746881289
  H         5.6967531221        6.3484579986        7.3564611259
  H         7.1626366134        6.0671046485        7.2444144594
  O        -0.6198279219       -4.6331965431        4.6729817548
  H        -0.4059151153       -5.6162076247        4.5721587132
  H        -1.4212022717       -4.5503233535        5.2530657813
  O        -3.5001796716       -4.5265494132        0.5727263562
  H        -4.4332971543       -4.7733511352        0.5877355202
  H        -3.2684938465       -4.0068917943       -0.1844639044
