       6
 i =      625, time =      125.000, E =       -34.4492970393
  O         2.5256517557        4.2560871699        3.7666518002
  H         2.0247110239        4.8925847061        4.2662220062
  H         1.8527263769        3.8306922818        3.2078599525
  O         5.3364209320        4.2646572981        4.2422110143
  H         5.0579579613        3.8971769481        5.1183012790
  H         4.5046306910        4.2396901878        3.7341283860
