     192
 i =     2400, time =     3600.000, E =     -1100.0615958885
  O         5.4800958452       -4.2761690661        4.2042406400
  H         6.3554777825       -4.4209044069        3.9112363075
  H         5.5648958755       -3.7772208775        5.0168185865
  O        -3.5861614995        2.7267565749        4.2511091738
  H        -4.0691057035        1.8607425428        4.1833579328
  H        -3.0655361076        2.5930317493        5.1036833403
  O         6.5736794026        3.8094969697        5.5057137279
  H         6.0943173291        4.1319501966        4.7645749147
  H         7.5243228973        3.6811203298        5.0622119113
  O        -2.2028674742       -0.8109918770       -2.8364167304
  H        -1.7999598332       -0.6389917848       -1.9345443322
  H        -1.5108052232       -1.0508754738       -3.4947911605
  O        -3.2992898062        6.2898393844        5.5739135020
  H        -4.1334990893        6.2420857361        6.1351335105
  H        -3.4615777694        6.8950262254        4.8137472205
  O         7.8325243438        0.2705614211        4.1318157666
  H         7.5148608188        0.1324448369        5.0499639847
  H         7.2656906849       -0.1994094321        3.4404582235
  O         4.3031395476       -5.7293638506       -0.2256850217
  H         3.7199348801       -5.2292491647        0.3982444443
  H         4.3600199566       -5.1431750243       -1.0165256104
  O        -0.7401671191       -3.4304738742       -1.1663924482
  H        -1.4288621254       -4.0538620044       -0.9638998566
  H        -1.0637648791       -2.5647186424       -0.9014338543
  O         4.2644070537       -2.1758820711        2.8921727554
  H         4.7122316971       -2.8374745186        3.4698073667
  H         3.8405276062       -2.7053052733        2.1434818437
  O         3.5545282481        3.6122054665        6.0439905301
  H         2.8892516236        2.9257622590        5.7551320301
  H         3.2187720650        3.9170485299        6.9148693592
  O         5.3280010606       -4.6768604462       -2.6768882418
  H         4.8804465777       -4.7147121912       -3.5640391238
  H         5.8512151727       -3.8839233335       -2.7806479586
  O         3.0826133399       -3.3965031242        0.7682317296
  H         2.1316305279       -3.4838039950        1.0086049457
  H         2.9860804560       -2.7980093485       -0.0323543369
  O         1.8332344165       -5.6439181881       -5.4252556121
  H         1.8260415064       -6.5733710889       -5.1222975816
  H         1.2424161414       -5.3937500313       -6.1827886665
  O         4.6137373995        4.8292129955       -2.4700519054
  H         5.2052592510        4.1575885901       -2.0807871856
  H         5.0993141662        5.6385752935       -2.3464672531
  O         2.4408781165       -0.1776653302        3.9942874064
  H         3.1103894702       -0.8707301067        4.0763297179
  H         2.9247106128        0.5148073756        3.5145122144
  O        -1.7314521570        2.0033787244        6.4618825255
  H        -1.1102369258        1.3029509408        6.2304575326
  H        -2.3755233648        1.6509852374        7.1025076988
  O        -0.0922957903       -1.4203274299        3.3584288587
  H         0.1142026939       -2.1939822250        2.8830836635
  H         0.7137538042       -0.9493970376        3.4481708504
  O        -1.7423481320        3.8964850965        2.1198726290
  H        -1.0911775974        3.3567991405        1.6329070987
  H        -2.2237879830        3.3858932743        2.8105282738
  O         0.8787262484        0.3789080320       -5.9309168483
  H         1.5758535363        0.2657764441       -6.5912403240
  H         1.3683559071        0.7777166646       -5.1677271820
  O        -1.0913818806       -0.8615891946       -0.4819519613
  H        -1.5685602193       -0.3637823587        0.1903685197
  H        -0.1995985414       -0.4156330850       -0.6500519252
  O        -4.0407783911        3.3568635532       -2.6196753304
  H        -4.2837787194        4.2770317593       -2.8993025592
  H        -3.1321819043        3.4052872390       -2.2861280741
  O         6.1802231778        3.2873503306        1.5230196830
  H         5.7517229404        3.0538091551        0.7007188856
  H         5.4739574978        3.1695015401        2.1400536441
  O         4.8147083825        0.6755530913       -3.1515804088
  H         5.2486786543        0.6594474112       -4.0181383969
  H         5.2714656381       -0.0245093912       -2.7297762579
  O        -4.4205816568        5.9784898638       -2.9903042851
  H        -4.8727017924        6.1208324122       -2.1286742660
  H        -5.1531093239        6.0998440115       -3.6029176270
  O         5.3706355798        0.3017184782        0.0329284102
  H         5.6103065303       -0.2342838823        0.8288880637
  H         6.1287938194        0.8817705769       -0.1763833230
  O         1.2235299950        0.0492026682       -1.2816588857
  H         1.6332569622        0.7414852968       -0.7798835343
  H         1.8820716118       -0.7215626537       -1.3791203310
  O        -5.5461929177       -6.0496135051       -0.4914657070
  H        -5.1162940596       -6.6921180358        0.1319787588
  H        -6.5416974417       -6.0651987626       -0.2973468904
  O        -4.5158394872        5.2426708525        1.7069827121
  H        -4.9451375189        4.3537624666        1.7508987462
  H        -3.6088261457        4.9816623614        1.9790600471
  O         6.2747216919        0.7919534756       -5.3077795833
  H         7.1791831520        0.9250544315       -4.9031193505
  H         5.8752055283        1.6228889877       -5.6594921555
  O         2.7950409781       -2.2125677566       -1.5953501137
  H         3.7191798003       -2.2695318869       -1.9333527989
  H         2.2336568014       -2.8685783471       -2.1463922423
  O         3.0095641168        1.6030026169        0.0807602620
  H         3.8530653543        1.1293548191       -0.0262430310
  H         3.0140183087        2.5781006588       -0.1189893811
  O        -1.8273489128        0.0660294124        1.9965728900
  H        -1.2042120503       -0.4604192577        2.5703650717
  H        -2.6462249345        0.3495276162        2.4701070535
  O         2.0429050511       -7.4545802918        2.2644846217
  H         2.0769677285       -7.4806246676        1.2816988524
  H         2.9112153807       -7.1831722591        2.5668241323
  O         1.1241864056       -3.7414816874       -3.0339648800
  H         0.3866499190       -3.8325678087       -2.4358159838
  H         1.3523942394       -4.5579872083       -3.5389220218
  O        -4.4031078446        1.1077401443        0.1814970320
  H        -3.5273435026        1.5401072097       -0.1921385283
  H        -4.5392311305        1.7753542856        0.8772535479
  O         4.3248484108       -5.0294608136       -5.1324280754
  H         3.4578545152       -5.4595172050       -5.4068827967
  H         4.3844428995       -4.1123389416       -5.3876016397
  O        -0.9841042174        3.2029397864       -3.0331801716
  H        -0.6298624225        3.0452752539       -3.9045948319
  H        -0.4909230164        3.9533610542       -2.6134871177
  O        -4.3340012018       -4.6523020544        3.3131532368
  H        -4.0080908442       -3.8467845865        2.8506961890
  H        -4.4434608984       -5.3549434404        2.6558612552
  O         4.3315708613        5.3257255198        4.0530087474
  H         4.6686445152        6.2229213027        4.0901812340
  H         3.8242907699        5.0959547378        4.8770071686
  O        -3.8071609180        1.1126915353       -4.2840667235
  H        -3.4262442612        0.4074241143       -3.6694247696
  H        -3.9990462827        1.8850225159       -3.7389471381
  O         2.1697667353        2.2563095474        2.5734878464
  H         1.8727673417        3.2157826745        2.5630765724
  H         2.6224924238        2.1136721114        1.7112280149
  O        -6.0213648594       -0.8188534562        2.2839349235
  H        -6.8583846844       -1.3977820064        2.3853585792
  H        -5.3923896702       -1.3586602041        1.8440457256
  O         0.0110953462        2.0163655485        1.2019200733
  H         0.8780752457        1.9256148253        1.7218314334
  H        -0.5319254308        1.2541233848        1.4407387893
  O        -2.1976653757        5.7919007389       -0.2382254265
  H        -2.0577494240        5.3860360480        0.6591694858
  H        -2.4034939213        6.6809932078       -0.0009948886
  O        -0.2740211879       -1.7662191605       -4.7598165250
  H         0.4005730957       -2.3205139135       -4.2990495692
  H         0.2779247052       -1.1697611384       -5.3125032413
  O        -6.5145280752        2.7929251814       -1.3932762822
  H        -5.5850187085        2.8158578887       -1.7468956098
  H        -7.0526741815        2.2128267422       -2.0039868889
  O         5.6683763718       -1.5344102121       -1.6610338986
  H         6.6088777844       -1.6989870378       -1.7132369099
  H         5.5035980236       -0.8056138810       -0.9098566507
  O        -2.1720491193        2.4799365056       -0.5794836463
  H        -1.5085678344        2.1319826731       -1.1742180101
  H        -1.7339113646        3.0179867585        0.0890903670
  O         0.0727266712        5.1230133637       -1.5660697841
  H        -0.3043106151        5.7197147036       -2.3386333224
  H        -0.6013331966        5.3906185078       -0.8820512940
  O         5.6017520826       -2.6102115477        6.4152867590
  H         6.3184975032       -2.7260630502        6.9980767716
  H         5.5632999328       -1.6754969524        6.1682178241
  O        -1.3428457586       -6.0267562248       -3.9959152071
  H        -1.1654140161       -6.7503492885       -4.6738635150
  H        -2.2693038202       -6.3233113775       -3.7576337025
  O        -4.1507189958       -2.4381575710       -2.3040770412
  H        -4.3317561110       -2.8424413193       -3.1717920940
  H        -3.4592056515       -1.8503840575       -2.4984380966
  O         2.5099324718        4.5378603038       -0.4125255693
  H         1.7050378620        4.7458241596       -0.9224206299
  H         3.1581111999        5.1877413337       -0.7361764990
  O        -4.7833741927       -3.6511289163       -4.6885174233
  H        -3.8384847522       -3.5751828235       -5.0267595057
  H        -4.9603829214       -4.5645893336       -4.9169405158
  O        -0.1345848901        6.1618818895        3.0813522482
  H        -0.7820070524        5.5065131687        3.2366665469
  H         0.7521114823        5.7801938040        2.8221591328
  O        -2.1064392099       -3.7468676824       -5.4003104801
  H        -1.7519762948       -4.5455347620       -4.9065016695
  H        -1.3905246890       -3.1261415542       -5.3915829369
  O        -3.5577574172       -2.7186685857        1.7021947468
  H        -2.9001097038       -1.9576695936        1.6755535020
  H        -3.6231746625       -3.1891552490        0.8372466234
  O         2.4052193178        4.4304511912       -4.0738758947
  H         3.0983328646        4.7908217762       -3.4160418893
  H         2.0621612053        3.6082203548       -3.7229037592
  O         2.1358461439        1.6453902185       -3.5247101172
  H         1.7665820127        0.9438748003       -2.9342213559
  H         3.0845741775        1.3224469501       -3.4860209244
  O        -1.3046327386        4.9118271377        6.4118794410
  H        -1.4973431505        4.0022428054        6.3756383256
  H        -2.0415567310        5.3896918122        5.9643458593
  O         0.4613150445       -3.9295050898        1.5814143886
  H         0.0639609474       -4.7769466882        2.0484656991
  H         0.0546149713       -3.8244973071        0.6388081052
  O         6.5384772050        6.0186360885        7.0349812971
  H         5.7243054302        6.5738526385        6.9178472877
  H         6.4608392029        5.3107963002        6.3727692280
  O         0.4403531561       -4.4666922424        5.0514080654
  H         0.3257759086       -5.2020611536        4.4151208985
  H        -0.4422843746       -4.1064973046        5.1463585348
  O        -3.6580314084       -4.1495133832       -0.4291630536
  H        -4.3793791714       -4.7728365382       -0.4056551153
  H        -3.8218464661       -3.5742555456       -1.2062480660
