       6
 i =      175, time =       35.000, E =       -34.4467276442
  O         2.7836791951        4.3158940434        3.3441333416
  H         1.9730465775        4.7437295765        3.6891394476
  H         2.5390555079        3.9736321362        2.4685220774
  O         5.9490011346        4.2947091318        4.8441915248
  H         6.3890109516        3.5285814711        5.1994446844
  H         5.0373778117        3.9808144814        4.7130106741