     192
 i =     3400, time =     5100.000, E =     -1100.0292512228
  O         6.1883502905       -3.4022552328        3.9357109622
  H         7.0957932244       -3.7981407061        3.8580123600
  H         6.2815554088       -2.6413449419        4.6253940981
  O        -3.0360193248        1.1964481765        5.0513446656
  H        -2.9127811106        0.4155410676        4.5764747800
  H        -2.8322890328        0.9248943075        5.9740305620
  O         7.4089281595        3.0644458461        5.2375872632
  H         6.9826721459        3.0734864157        4.3376216384
  H         8.1404127319        2.4309313042        5.0492780223
  O        -2.2967553210       -0.2979301206       -2.4846256578
  H        -2.0758337362       -0.1753713608       -1.5045342294
  H        -1.4177401915       -0.5504751007       -2.8985567905
  O        -3.9275471653        7.0234388876        6.1472832958
  H        -4.8123475205        6.6733307444        6.1673926182
  H        -3.7642144005        7.4235322601        5.3013331723
  O         7.7111618045       -0.8524417666        3.1575927750
  H         7.3836752537       -1.0696006616        4.0511229121
  H         7.1189725378       -0.2205764456        2.6964191123
  O         4.4726004385       -5.4699854990        0.4103580816
  H         3.8659417126       -4.7354745426        0.3884139152
  H         3.8777657574       -6.0938718622        0.0006171698
  O        -0.9814203214       -3.7869892965       -0.9944538464
  H        -1.8631388660       -4.0472515639       -1.2180708697
  H        -1.0505068979       -2.8968303530       -0.6158770100
  O         2.5844117438       -1.9593025314        4.4354500622
  H         3.1130396392       -2.3117030129        5.1499559649
  H         2.6459458501       -2.5277461901        3.5975577941
  O         3.6818186234        2.4298528152        5.3214259416
  H         2.9408318636        1.9166789806        4.9567774630
  H         3.3468018241        3.0538356106        5.9702091924
  O         5.6674108506       -4.2368502182       -3.9614597809
  H         6.0122796545       -3.7753861924       -3.1373638115
  H         5.5960760301       -3.6381613860       -4.6924007766
  O         2.8094138042       -3.6303426875        2.2079959430
  H         2.0627700978       -3.5080775163        1.6148474235
  H         3.4328342790       -3.0035345014        1.7572060517
  O         1.6485357040       -5.7365034034       -4.6083534241
  H         2.1877882350       -6.5267748900       -4.7548086451
  H         1.3570376839       -5.4495999457       -5.4615593656
  O         4.5430236865        5.3996683736       -2.9433141004
  H         5.1982035183        4.6513937743       -2.7895944191
  H         4.9308024803        6.2421675614       -2.6147607188
  O         1.9104187531        0.4468345800        4.5465830634
  H         2.1284465240       -0.4812333664        4.3106734240
  H         1.8106263389        0.7949606365        3.6163139380
  O        -1.0696466043        3.0752081459        7.5147547447
  H        -0.4191536859        2.4780778650        7.1037758699
  H        -1.8625914076        2.5402134268        7.5368040478
  O        -0.7988334484       -3.3333612084        3.4904836744
  H        -0.3825817338       -3.6923237043        2.6501763639
  H        -0.5197424588       -3.9008141903        4.2363725088
  O        -1.8844897833        4.1718988936        2.9946709392
  H        -1.7380024961        3.2197930818        2.7503757978
  H        -1.6149066104        4.3883666003        3.9291676168
  O         0.4802377441        1.0242365087       -5.6469154186
  H         0.8378401167        0.5157649609       -6.3613191554
  H         1.2360518824        1.3215670006       -5.0461984211
  O        -0.8916286144       -1.2767195541       -0.1352513108
  H        -1.2129989670       -1.2475093748        0.8057041208
  H         0.0159270418       -0.9885514278       -0.0904168555
  O        -4.0441888612        3.2187393581       -2.4117004370
  H        -3.6786845933        4.1042637876       -2.7137163882
  H        -3.5078869304        2.8560278168       -1.6935291949
  O         6.1026058398        4.1469983794        1.1724290628
  H         5.4007856142        4.3967864744        0.5288436272
  H         5.7326087284        4.0528930570        2.0891842062
  O         5.2998402799        0.6179133780       -3.6552886249
  H         5.7316546375        0.6990682580       -4.5173709860
  H         5.6157153012       -0.2081494300       -3.1535475544
  O        -4.0277876202        5.8757653147       -3.2517670400
  H        -4.0739156414        6.6963704113       -2.7616017152
  H        -4.6907626262        6.0674126031       -3.9235631623
  O         5.4703712342        0.9545345188       -0.2096322509
  H         5.1942327379        0.7903140792        0.7064552819
  H         6.2945000744        1.3981580372       -0.1244318635
  O         1.7244454188       -0.2420879700       -0.3922245712
  H         1.7376065808        0.4074768437       -1.0724156024
  H         2.3703441862       -0.9214443641       -0.6119248266
  O        -5.4842572601       -4.7874338575        0.5133332473
  H        -5.0284795428       -5.0707864656        1.3139946658
  H        -6.2975276757       -5.2853840609        0.4224263375
  O        -4.2011970580        5.6773822216        2.3858036345
  H        -4.8071496782        5.0492354148        2.0309072198
  H        -3.6863850287        5.2146762993        3.0739354398
  O         5.9861910527        1.0996106828       -6.0305800333
  H         6.5205387690        1.8485354400       -6.3936959594
  H         5.1087137170        1.3139500014       -6.3744880596
  O         3.2333407686       -2.4264690096       -0.5655972893
  H         4.0370448850       -2.1195284855       -1.1560413482
  H         2.7422149051       -2.9236132170       -1.2473255593
  O         3.2569892873        2.1773987628       -0.8908721066
  H         4.1251680850        1.8396136047       -0.5952271225
  H         3.1267657750        2.9936645608       -0.4584395361
  O        -1.9258047126       -1.0293003183        2.5521444130
  H        -1.5918121016       -1.8422231223        3.0290716665
  H        -2.8495268374       -1.0875518124        2.7479816430
  O         2.6562548829       -8.6605927394        1.9780606076
  H         2.9435611837       -8.2233891874        1.1940881293
  H         3.4189246770       -8.5971446982        2.5161956719
  O         1.4604644140       -3.6637331209       -2.5308202025
  H         0.6566504788       -3.7365807483       -1.9701946561
  H         1.2808146976       -4.2270483725       -3.3189826950
  O        -4.6653442241        2.1861200694        0.6799099994
  H        -3.8312174464        2.1487688153        0.2475845971
  H        -5.0983132185        3.0322752672        0.4706566080
  O         3.9063310311       -5.7961541035       -8.5678035874
  H         3.4152574725       -5.6492512345       -7.7778874318
  H         3.6768189834       -5.1857439665       -9.2269131745
  O         0.3885921284        3.1155347557       -2.2137898950
  H        -0.1961432650        3.2095366690       -3.0374539445
  H         0.4111434588        3.9945704678       -1.8352122893
  O        -3.4764353621       -4.2561957678        3.6627100443
  H        -2.5722908779       -3.9194931999        3.4331400573
  H        -3.6547980818       -4.9884002777        2.9934440390
  O         4.8819413268        4.0954917305        3.5981575412
  H         4.7332594662        5.0324456215        3.7565185183
  H         4.4870316634        3.6490299668        4.3576358785
  O        -2.9360379850        1.0601712346       -4.5916461711
  H        -2.6903458041        0.6308760002       -3.7125917176
  H        -3.7866438246        1.5312624288       -4.2873633668
  O         1.7439235460        1.2566051700        1.9228528914
  H         2.0803762035        2.1466274291        1.8921426426
  H         1.7583187582        0.8420699169        1.0453464757
  O        -8.0838947126        0.2322397320        2.0485098760
  H        -9.0319693825        0.2567198451        2.0234217888
  H        -7.7713008147       -0.7016278729        1.9648561090
  O        -1.1335408028        1.6146850011        2.2120889297
  H        -0.1912464265        1.5817841036        2.1877012653
  H        -1.4424903703        0.7351867041        2.3262527342
  O        -2.2273517627        5.9808651345       -0.0333460998
  H        -2.2994906469        5.7441203185        0.9278011942
  H        -3.1466781915        6.2824306815       -0.2366565212
  O        -0.0122167461       -1.2500997767       -3.8440489690
  H         0.7639874150       -1.5659293620       -3.3665102664
  H         0.3321520418       -0.5918323354       -4.4896561116
  O        -6.6740356593        3.2495952107       -2.2878083576
  H        -5.7043139477        3.0513428674       -2.3465692809
  H        -7.1736696006        2.5456373292       -2.7723996480
  O         5.6935555752       -1.4313344281       -1.4157402946
  H         6.5927406316       -1.5623992903       -1.8115735693
  H         5.7264370920       -0.5502733311       -0.9522811149
  O        -1.7980511034        1.8928452765       -0.5455659899
  H        -1.0375075563        2.2376059165       -0.9976457288
  H        -1.5240125033        1.5557850415        0.3647353763
  O         0.3305799997        5.5987956976       -1.3013173013
  H        -0.2986705908        5.6994849162       -1.9799896681
  H        -0.1883511129        5.5236690622       -0.5361316879
  O         6.7155126466       -1.5174139343        5.7948168185
  H         7.5519890042       -1.9176856442        6.2036093322
  H         6.4111230136       -0.5956130165        6.1244595361
  O        -1.3168893945       -6.3595501832       -3.5576555053
  H        -0.8316635093       -7.0185409943       -4.1237174924
  H        -2.2744076225       -6.5808511532       -3.6787940705
  O        -4.4872028779       -1.7272407085       -3.1116112044
  H        -4.4830639930       -2.1389120345       -4.0305051140
  H        -3.6185160929       -1.2122661271       -2.9268679926
  O         2.9784536533        5.0223691208       -0.6913977656
  H         2.0110133527        5.1035829873       -0.9644652140
  H         3.4937168083        5.0433689019       -1.5281647250
  O        -4.0344199889       -2.8649470119       -5.3512688006
  H        -3.1281761637       -3.1224178727       -5.0472865202
  H        -4.3524414766       -3.7165725271       -5.6847274734
  O         0.0936722932        5.3594497299        1.6522004727
  H        -0.5205919292        4.8012579608        2.1711209104
  H         0.9506046242        4.8556768058        1.6562645266
  O        -1.5695915200       -3.5338422070       -4.4562191435
  H        -1.3981002867       -4.3114521456       -3.9881868541
  H        -1.0445660634       -2.7660706895       -4.0907688684
  O        -7.3112441914       -2.3446624974        1.6966428356
  H        -6.9429393954       -2.7642966591        0.8806742853
  H        -6.8552173303       -2.8200008341        2.4491472807
  O         3.2277910491        3.9762866481       -4.9715574906
  H         3.6762108696        4.5091613909       -4.3292738940
  H         2.7125464570        3.3747991564       -4.4289422620
  O         2.3402863897        1.4640270541       -3.6395446468
  H         2.2326003612        1.8307289441       -2.7144751155
  H         3.2140958529        1.0494891623       -3.7122490544
  O        -1.7022943840        4.9578744762        5.5767693191
  H        -1.5303439361        4.1938399332        6.1540484853
  H        -2.5622184619        5.3435093854        5.6541922273
  O         0.3097120971       -4.2997055865        1.2605924152
  H         0.2420939165       -5.2662943881        1.4458672634
  H        -0.1927611106       -4.2544302733        0.4110594555
  O         6.4574743584        5.3431925469        6.9046607759
  H         5.5328578277        5.5336213863        6.8627283555
  H         6.6667799443        4.4690786734        6.5820513052
  O        -0.3476376971       -4.9461649537        5.6022882072
  H        -0.7101961097       -5.8155651532        5.6263999487
  H        -0.8187421504       -4.3999412604        6.2181674575
  O        -3.8322764245       -4.2575189524       -1.8374692046
  H        -4.3875073333       -4.4757982769       -1.0558912596
  H        -4.0399318387       -3.3798373592       -2.1995138668
