       6
 i =      425, time =       85.000, E =       -34.4455028523
  O         2.7149209348        4.3313442626        3.2360324470
  H         2.2096946249        5.1197360671        3.5526195092
  H         2.8028547005        4.4447958512        2.3023773798
  O         5.8954730390        4.3168292657        4.9879179248
  H         5.7410990973        3.3695653816        5.0820051271
  H         5.1403988453        4.6199526310        4.3945931681