6
Properties=species:S:1:pos:R:3 i=0 time=0.0 E=-34.4504806384 pbc="F F F"
O       2.50925259       4.31010905       4.23811546 
H       2.92865388       4.47776094       3.38765416 
H       1.71262068       3.80888363       4.03741751 
O       4.33229738       2.62537342       5.92253570 
H       4.53460257       3.06638532       6.75241889 
H       3.74555486       3.23189957       5.44474051 
