     192
 i =     5900, time =     8850.000, E =     -1100.0558766569
  O         6.0216996697       -4.0223364151        3.1713468893
  H         6.0145558030       -4.9331222818        3.4012765282
  H         6.4425676093       -3.5990428761        3.9448479508
  O        -5.3051598130        1.5993442804        5.4113747460
  H        -4.8328913677        1.0785817124        4.7699498349
  H        -4.8103666030        1.6262402097        6.2497383801
  O         6.2829824754        4.4434745018        5.8508839949
  H         5.4342995073        4.4093585376        5.3761068002
  H         6.7846960200        3.6841131610        5.5158366465
  O        -1.9572147489        0.4566858092       -3.6771221483
  H        -1.7588456039        0.9863390839       -2.8852655495
  H        -1.3530570288       -0.2930901465       -3.6633447181
  O        -3.9671180216        5.5090127986        4.2752776309
  H        -4.8928618795        5.1865771934        4.5559979342
  H        -4.2725070945        6.1049148388        3.5376382087
  O         7.6131564586       -0.5171392080        3.8829606953
  H         7.6222795707       -1.3458604562        4.4181964325
  H         7.1892088195       -0.5794340878        2.9614380942
  O         4.2143804983       -5.6342306732        0.8067791184
  H         4.1179962241       -4.7936172380        0.3702169890
  H         3.5779286237       -6.2009953650        0.3054918685
  O        -1.0396484109       -2.4540099191       -1.5512892106
  H        -1.8905073788       -2.9580520416       -1.6651465459
  H        -1.3001889799       -1.6380514032       -0.9766121316
  O         3.4227013689       -2.8655731345        3.5542932790
  H         4.3086541794       -3.1903834988        3.5364808462
  H         3.1806908761       -2.5561221648        2.6731761919
  O         3.4336265003        2.5867184420        6.1637406271
  H         4.1071385805        1.8429251033        6.3462469809
  H         3.4900814805        3.1187513923        6.9961880649
  O         5.2999940789       -3.4258089008       -4.9470415792
  H         5.2422738494       -2.5548882861       -4.5405188717
  H         4.3811243705       -3.5815467126       -5.2007035721
  O         2.2627215164       -1.9822580914        1.1386396989
  H         1.5748191794       -2.6894795828        0.9603271942
  H         2.9417460709       -2.2346139572        0.4739786898
  O         2.0626324427       -5.6177552692       -4.5186339533
  H         2.5344361041       -6.4507115212       -4.4867341279
  H         2.0700307882       -5.3946910646       -5.4360338241
  O         4.5367798714        3.7487826296       -1.9842641961
  H         4.8259121010        2.8519101808       -1.8076687845
  H         5.3464221149        4.3110294118       -2.0293644489
  O         2.7180657955       -0.7157607641        4.9421277891
  H         2.9867173738       -1.4070965483        4.3279180393
  H         2.2492650614       -0.0590017251        4.3902285287
  O        -0.8261360874        2.4261933616        6.7997635841
  H        -0.8553119259        2.0738710404        5.9228266381
  H        -1.2215874681        1.6894701791        7.3234799476
  O        -1.7024016729       -3.3767197185        2.8173608966
  H        -1.0714233378       -3.3787372383        2.0983304019
  H        -1.2823267795       -3.7024293261        3.6290272312
  O        -1.8483120976        4.5880186824        2.6568280509
  H        -1.6702678082        3.9560109724        3.3179221396
  H        -2.5816823692        4.9391253658        3.1872351834
  O         2.2599688198       -1.7985370112       -5.0760130770
  H         2.3872810544       -1.4221967359       -5.9612834753
  H         2.5891487274       -1.1069786539       -4.4492115528
  O        -1.4337169962       -0.1481795329        0.1711367267
  H        -1.8549127224       -0.1557185055        1.0502916835
  H        -0.5199947263        0.0727904060        0.4210696905
  O        -3.2812502716        3.9122874659       -2.3693602155
  H        -4.1172804284        4.3448892744       -2.1415484179
  H        -2.9554958380        3.5615410282       -1.5430130844
  O         5.6222857471        5.7719758698        2.8406633323
  H         4.9492332473        6.1710150627        2.2431610746
  H         5.1679180763        5.4660937985        3.6631771083
  O         5.3370276532       -1.0269332370       -3.7168099284
  H         5.0897926766       -0.5873065149       -4.6468974815
  H         6.3482517783       -1.0204129612       -3.7866479810
  O        -5.7506633091        5.2530174828       -2.0884281977
  H        -5.5803983725        5.8985550385       -1.3501435900
  H        -5.5444259163        5.6557596833       -2.9049235441
  O         8.2232982812        1.2019594849        0.1387928709
  H         8.7066784093        1.9984828953        0.3763192725
  H         7.6482033575        1.4620536442       -0.5921625554
  O         1.0386423542        0.3840445417        0.7774829229
  H         1.7791886272        0.8423029016        0.3673862424
  H         1.4201965672       -0.4661758912        1.0848133855
  O        -5.4444211582       -5.3233055663       -0.0289389059
  H        -4.7759384004       -5.0617100558        0.7018182079
  H        -6.1907426041       -5.5695351358        0.5340222733
  O        -3.3830072772        3.9718404351        0.5396923743
  H        -4.3233106341        3.7642554474        0.8537930325
  H        -2.7976874698        3.9784386480        1.2664346194
  O         4.9123990564        0.4246124209       -6.0346145617
  H         5.8188019589        0.6506842642       -6.4739788728
  H         4.3200186971       -0.0175355283       -6.6676012206
  O         4.2411889473       -2.9434307674       -0.5348732318
  H         4.8765109319       -2.2798724661       -0.8408915616
  H         3.7826605504       -3.1112554039       -1.3681429598
  O         1.8928139454        1.8887482074       -1.9553627549
  H         2.1655518707        2.5046284417       -1.2536723741
  H         1.5126604701        2.4212931042       -2.6934916925
  O        -1.9269423355       -0.5527414720        3.0768279306
  H        -1.9661240856       -1.4987349884        3.0100879694
  H        -2.8345361498       -0.3490343944        3.3633441828
  O         2.4375019932       -9.0433118277        2.0876211185
  H         2.4436168577       -8.4972536150        1.2349675073
  H         2.7530901520       -8.3687550275        2.7971939596
  O         2.2557625167       -3.7309333194       -2.4449472759
  H         2.1222634403       -4.2933495437       -3.2206689714
  H         1.8583084046       -2.9003337438       -2.7963735558
  O        -6.0316155181        3.6422294967        1.3997783873
  H        -6.8145378323        3.1717746190        1.1063541618
  H        -6.2754365418        4.3553433653        2.0375378438
  O         2.1723924341       -5.3724571918       -7.6191551793
  H         1.2629598652       -5.0369045806       -7.6441114260
  H         2.7100789240       -4.6397521372       -7.9506050744
  O         0.7649079962        3.6672058018       -3.6934279914
  H         0.3956337945        3.2294119544       -4.4858771556
  H        -0.0091211207        4.0861050843       -3.2742447535
  O        -3.6009748521       -5.1070383351        1.8181619978
  H        -3.2081103405       -4.4601394879        2.4123723177
  H        -2.8538092404       -5.3280666496        1.1896253565
  O         3.7546706236        4.7938298550        4.5730378524
  H         3.0748551883        5.5112216285        4.7170520915
  H         3.7047299296        4.0510995043        5.1842484553
  O        -4.2609218406        1.9818070875       -4.1301911444
  H        -3.6735311715        1.2413905619       -4.1927917781
  H        -3.9148792268        2.6617325848       -3.4995875522
  O         1.7143481830        1.6922422571        4.0868894217
  H         2.1965694722        2.1739743033        4.8070866680
  H         2.0506001295        2.0814136987        3.2360757878
  O        -8.4246446793        1.2166332843        0.3976419339
  H        -8.7654071112        1.3517357664        1.2928477510
  H        -7.6233711944        0.6432124332        0.5059768654
  O        -0.8332861201        2.0093405193        4.0609232427
  H         0.1507091211        1.8941091815        3.8548595970
  H        -1.2032949694        1.1585768649        3.7226358682
  O        -1.9271327903        6.2211033095       -0.2604991352
  H        -1.0811862230        6.4377891250       -0.7470342244
  H        -2.2286186183        5.2669663958       -0.3354850718
  O        -0.2245153077       -1.6942655453       -4.1054103702
  H        -0.2327834860       -1.9374401929       -3.1816860152
  H         0.7343454374       -1.7415778330       -4.3143514317
  O        -6.1590404549        1.5337037887       -2.0773632510
  H        -5.5799990367        1.6633649063       -2.8802738244
  H        -6.6942639336        0.8701414998       -2.4915809164
  O         6.8678740101       -2.3369332091       -1.0339267648
  H         7.0758429926       -3.1990196054       -0.6289226887
  H         7.3938573089       -2.1588915185       -1.8394875040
  O        -1.3746405360        2.1164572276       -1.4577437576
  H        -0.3708124510        2.0943316488       -1.5115198486
  H        -1.5782444719        1.4367420688       -0.7465365315
  O         0.3519419297        6.4807106534       -1.6939378110
  H         0.8416227828        7.2761645715       -1.9071286005
  H        -0.0435914447        6.1006732436       -2.5481594023
  O         7.2092921359       -2.5942875724        5.6314886858
  H         8.0381434217       -2.8714988032        6.1313810193
  H         6.4624963698       -2.9303325870        6.1387555026
  O        -1.4075957058       -7.1251506811       -3.5460450896
  H        -1.5867255568       -6.8502094466       -4.4183571441
  H        -2.1035785594       -7.7435453778       -3.2566768757
  O        -4.2920612849       -1.2258701795       -3.9177106589
  H        -3.9484880697       -2.1305856414       -4.2007716920
  H        -3.5642010155       -0.6601699990       -3.6442720314
  O         2.5668543089        4.8453949714       -0.3808325955
  H         1.6794451433        5.0756147773       -0.6724338388
  H         3.0772413101        4.4104722881       -1.0696269816
  O        -3.7143436419       -3.7102679613       -5.1585288165
  H        -2.8179265508       -3.9277064308       -5.0070077022
  H        -4.1753949107       -4.4384822336       -4.6367399382
  O         0.3469486288        6.1145152770        1.9355195174
  H        -0.3696704104        5.4575413450        2.0905988195
  H         0.8533696981        6.1253905856        2.7304217941
  O        -0.3686288145       -4.3997503440       -4.4303712312
  H         0.3691307106       -5.0523915023       -4.3857363266
  H        -0.0536800509       -3.4450134710       -4.3232454624
  O        -6.0022750149       -0.4567677686        1.2693857983
  H        -5.3441641403        0.2101578127        0.9183609531
  H        -5.7155181508       -1.2261175393        0.7749396090
  O         3.3414389636        4.4364709236       -4.3711361354
  H         4.0883003325        4.2879994411       -3.6936165997
  H         2.4971501428        4.1136658820       -3.9149562120
  O         2.8471377106       -0.6883600888       -2.6800140218
  H         2.6089376050        0.1738575924       -2.3174661353
  H         3.7643816784       -0.7556660807       -2.3167220836
  O        -1.6652807781        5.4973947181        6.0322470607
  H        -1.3047706868        4.6114847893        6.2435457630
  H        -2.4953160613        5.3528903269        5.5595305492
  O        -0.1388862203       -3.8465458742        0.7063807823
  H        -0.0967506456       -4.8142552575        0.8487347948
  H        -0.7556583771       -3.7793563596       -0.1112088254
  O         6.9288561555        6.8339786108        7.8814964342
  H         6.0943819915        7.3107774303        7.9678218407
  H         6.8630887928        6.1892325774        7.1266187812
  O        -0.5130685481       -4.4264941470        5.0488362080
  H        -0.9599718241       -5.2647991660        5.2422889392
  H        -0.4778381107       -3.9571380082        5.8590209965
  O        -2.9219131419       -4.5615082194       -2.3040438975
  H        -2.8720880215       -5.1984077377       -1.5664675404
  H        -2.1126642870       -4.6331181220       -2.7840780586
