     192
 i =     2500, time =     3750.000, E =     -1100.0402817349
  O         5.8900211890       -3.8810964156        4.6630268923
  H         6.7458681399       -3.9884187118        4.1985357548
  H         5.9467370432       -3.0154581368        5.0361943157
  O        -3.2087292022        2.7818846828        4.4785900546
  H        -3.5394730677        1.9501211319        4.1735294448
  H        -2.4043534077        2.6719747814        5.0228866659
  O         6.9778518909        4.2144695566        5.2077368473
  H         6.8228089623        4.7027729556        4.4700835711
  H         7.8214102384        3.7529694979        5.1406438210
  O        -2.3793476168       -0.5233603780       -3.3397994460
  H        -2.1140500673       -0.4710450413       -2.3784222067
  H        -1.5284129045       -0.7733922603       -3.8126486060
  O        -2.7645101967        6.6430919271        5.4935739065
  H        -3.3861040922        5.8736778666        5.5554983261
  H        -2.9638068189        6.9198958182        4.6002050141
  O         7.9524368142        0.3681873587        3.8524909174
  H         7.4270256951        0.0393770715        4.6123561266
  H         7.5942612411       -0.2427576403        3.1553406931
  O         4.4025004890       -5.4934931058        0.3831173622
  H         3.7633911573       -5.1037079220        1.0249397217
  H         3.9825449074       -5.4045000023       -0.4957244314
  O        -0.7424487645       -3.6889091745       -0.8976010997
  H        -1.4620902501       -4.2844317870       -1.1618691792
  H        -1.1141310543       -2.7881428957       -0.9116169832
  O         3.8423049767       -2.3898791255        3.3242749215
  H         4.3952635643       -3.0914739873        3.6536941349
  H         3.2793902292       -2.9360237851        2.6726778550
  O         3.4782798597        3.8643814299        5.8427059848
  H         2.8555506161        3.8963617501        5.1443945518
  H         2.9634102317        4.0466626008        6.6553311911
  O         5.5077332934       -4.8533275173       -2.7607217805
  H         5.0887358559       -4.7207621572       -3.6357138850
  H         5.9431132685       -4.0107247643       -2.4273227552
  O         2.2015256155       -3.7729175677        1.3444258327
  H         1.2642087656       -3.9772167982        1.5634375720
  H         2.1853140115       -3.4031226349        0.4119792754
  O         1.6565693146       -5.4484113343       -5.3085870011
  H         1.6132470543       -6.3857525659       -5.0640917098
  H         1.1466392740       -5.3270054399       -6.1069436171
  O         4.1953753025        5.1371054562       -2.7177949034
  H         4.7049570659        4.3018097733       -2.5042760636
  H         4.8374572679        5.8702232558       -2.8581831808
  O         2.4497296717        0.0883649588        4.3493113389
  H         3.0359549234       -0.5510603126        3.9000272099
  H         2.3536873825        0.8927184289        3.7664631539
  O        -1.1587904070        2.1776480895        6.3924268735
  H        -0.3692659053        1.6096335311        6.2313962121
  H        -1.9118928613        1.5713918390        6.5560915075
  O         0.3121896516       -1.5459913277        3.2862547742
  H         0.3742979115       -2.4519884171        2.8607017726
  H         1.1818736493       -1.1510394857        3.4083215411
  O        -2.1245604762        4.2878153242        2.2376828646
  H        -1.5255129138        3.5365234210        2.0930702337
  H        -2.7701072239        4.0157528487        2.9416366365
  O         0.9097702062        0.5121989029       -6.1487416176
  H         1.3400242259        0.1926189332       -6.9842191313
  H         1.5522451987        0.9912152023       -5.5652634174
  O        -1.1905727867       -1.0053268361       -0.9175084424
  H        -1.3905189187       -0.6233233681       -0.0498992114
  H        -0.2608191201       -0.7546452129       -1.0404658099
  O        -4.2116562540        3.0918757751       -2.4040022253
  H        -3.9279663331        4.0234614785       -2.4874944091
  H        -3.5047975206        2.7108196539       -1.8402441298
  O         6.0311733336        3.2198388700        0.9984048154
  H         5.6075667821        3.0172268521        0.1265108702
  H         5.8163410461        2.6239923676        1.7417234471
  O         4.7617556815        0.9590150880       -3.4539455751
  H         5.3425237329        1.1817169235       -4.1711749282
  H         4.9775919873        0.0540023992       -3.2248016557
  O        -4.0703643771        5.9056065871       -3.2059818724
  H        -4.2409128023        6.3212755194       -2.3606914977
  H        -4.8622637440        6.0173246356       -3.8290536296
  O         5.8180190299        0.0995930218        0.2226689576
  H         5.9896421935       -0.4380436462        0.9804312580
  H         6.6781820168        0.5796986192        0.1539550214
  O         1.1865041118       -0.4176505716       -1.0659284903
  H         1.6539533530        0.3899411709       -0.7202581165
  H         1.9241877955       -1.0781471288       -1.0154031408
  O        -5.5737399762       -6.1686354287       -0.5428956209
  H        -5.2555885151       -6.5751348870        0.2747764517
  H        -6.4365530127       -5.8121685487       -0.1870991268
  O        -5.3260827789        5.1710639242        2.3845111044
  H        -5.9603866562        4.5982355474        1.9622756303
  H        -4.4991327707        4.9248952747        1.9814178935
  O         5.9002506401        1.5555187738       -5.7135051456
  H         6.8637295282        1.7223934910       -5.6380172708
  H         5.5795144841        2.3654070578       -6.1535053398
  O         2.8586633880       -2.5609524649       -1.2538671268
  H         3.7799389381       -2.3630181439       -1.4568387953
  H         2.5271179566       -2.7975154460       -2.1766585295
  O         3.3176777914        1.3355617830        0.1259161399
  H         4.1575038515        0.8220517390       -0.0565287870
  H         3.4098992417        2.2051275517       -0.2615953219
  O        -2.1524557871       -0.8021060470        2.5155302271
  H        -1.2698340870       -1.1169450788        2.8314469758
  H        -2.7814769429       -0.7755275925        3.2749759922
  O         2.4135522632       -7.4832187415        2.5422111901
  H         2.8359768674       -7.5012351715        1.6674549092
  H         2.9399962733       -6.9537959989        3.1312297651
  O         1.3176468962       -3.4869778233       -3.3037727652
  H         0.5174955384       -3.8077977245       -2.8408103313
  H         1.3812239874       -4.0534756501       -4.1254050004
  O        -4.2436504433        1.2039713214        0.6877719719
  H        -3.4358712691        1.3396956354        0.1825207093
  H        -4.5302680478        2.0545993834        1.0765677676
  O         4.2584583255       -4.8149715344       -5.2424417493
  H         3.3006305247       -5.0273117930       -5.3079718625
  H         4.3923086849       -4.0575533438       -5.8231654037
  O        -0.2734138753        2.2239833071       -3.2011573471
  H        -0.6735561035        2.2192662193       -4.0884545096
  H        -0.2120228077        3.1767554714       -2.9489852320
  O        -4.3718202667       -4.9623516271        3.4916703336
  H        -4.0778823193       -4.2720444292        2.7212350087
  H        -4.8808425789       -5.6690441275        3.0642474070
  O         4.6190385908        5.6872883794        4.3383316691
  H         4.9284167757        6.4451978839        4.7882253907
  H         4.5779489052        5.0269106109        5.0420693149
  O        -3.9775296971        1.6466188110       -4.6700699310
  H        -3.5762829290        0.8469733898       -4.2442744053
  H        -4.1811469268        2.1847329672       -3.9012858842
  O         1.7670837509        2.0359733832        2.5805241017
  H         1.8027224252        3.0110037061        2.7233473583
  H         2.2405683100        1.8365600221        1.7239665725
  O        -6.2005503894       -1.3960710546        2.3262727839
  H        -7.0170084247       -1.7665975977        2.6010564655
  H        -5.5830033279       -2.1555360331        2.2392402161
  O        -0.8979934419        1.8335206140        1.7663560894
  H         0.0077148346        1.8151365480        2.1813726604
  H        -1.3699747727        1.0487987506        2.1497937475
  O        -2.1552587615        5.1639409022       -0.6012240095
  H        -2.4336793845        4.8106415993        0.2665734714
  H        -2.4783330102        6.0409450792       -0.8503781999
  O        -0.0434971748       -1.1378440875       -4.4286729818
  H         0.5237878338       -1.9014801138       -4.1868834216
  H         0.3727215918       -0.6102762033       -5.1749224259
  O        -6.9010000362        2.9549080221       -1.7403443879
  H        -5.9301627561        3.0710894696       -2.0005852529
  H        -7.1307059186        2.1383856898       -2.1780104008
  O         5.6580704261       -1.4464693139       -2.2732335295
  H         6.4940733962       -1.8049723168       -2.5723853720
  H         5.9654163025       -0.9530674015       -1.4932830136
  O        -1.7725785176        1.9245380866       -0.9410050011
  H        -1.2360260885        2.0474560647       -1.7461698450
  H        -1.1753664687        2.0042092071       -0.1864117855
  O         0.0342596182        4.5410633531       -1.9804797683
  H        -0.0308339525        5.1049216909       -2.8564711358
  H        -0.7363351651        4.6259252138       -1.4071978272
  O         5.5387416955       -2.1095068782        6.9999695479
  H         6.4377394100       -2.2709030459        7.1645489720
  H         5.3419771040       -1.2548880094        7.2990526433
  O        -1.5133770316       -5.3692086690       -3.6811638067
  H        -1.0315031928       -6.0477289620       -4.2010948808
  H        -2.4304951169       -5.7815071352       -3.6622688413
  O        -4.0878283376       -2.5380574935       -2.7267919270
  H        -4.0865167108       -3.0339797464       -3.6008639685
  H        -3.6081302650       -1.7305114530       -2.8180608606
  O         2.5252828472        4.0846474167       -0.6743192391
  H         1.5906978169        4.1874401776       -1.0117552740
  H         3.0985692943        4.4001961592       -1.4122488277
  O        -4.4417897855       -3.5987846850       -5.2227958522
  H        -3.4661594364       -3.4853127006       -5.4273798910
  H        -4.7403275162       -4.4712441301       -5.5062986993
  O        -0.0079666283        6.3407516826        3.0782965681
  H        -0.6110767669        5.5589923221        2.8179522248
  H         0.8280649140        6.1005324861        2.7277223656
  O        -1.7825495968       -3.2679772121       -5.2575544997
  H        -1.6375778405       -3.9700316615       -4.6075994338
  H        -1.3133106476       -2.4734037855       -4.9557393856
  O        -3.7750902509       -3.0322580071        1.6162869955
  H        -3.0673404090       -2.4171160616        1.7798960349
  H        -3.6568723398       -3.3099452271        0.6882567678
  O         2.1203292620        4.4150394994       -4.2958481866
  H         2.7919415319        4.6394347691       -3.6587901251
  H         2.1656751310        3.3897465081       -4.1757868859
  O         2.3303676505        1.6089433087       -3.9091442582
  H         1.6411453721        1.3703334159       -3.3033696971
  H         3.2088671702        1.2662984804       -3.7410910305
  O        -0.5529829001        5.2959490446        6.9235056177
  H        -0.5517507776        4.3585929560        6.9392000353
  H        -1.1821921252        5.6352863683        6.1666984853
  O        -0.4853225648       -3.8241444765        1.8412827271
  H        -0.6600930555       -4.6603765387        2.1390388648
  H        -0.7390850879       -3.7858413278        0.9359055748
  O         6.7178005559        6.1384258751        7.0743783025
  H         5.8079546574        6.4782669396        7.0347038740
  H         6.7295467063        5.4330518702        6.3553822849
  O         0.1156904989       -4.5541755754        5.3256623422
  H         0.0061418655       -5.0495734442        4.4673841875
  H        -0.7149834682       -4.2286087495        5.6150469234
  O        -3.6214717230       -4.3034884849       -0.8285405458
  H        -4.4408259979       -4.8969139253       -0.8264684148
  H        -3.7540380560       -3.5516666970       -1.5245114559
