6
Properties=species:S:1:pos:R:3 i=0 time=0.0 E=-34.4504806384 pbc="F F F"
O      -3.80940371       3.06609762       4.35000000 
H      -4.39569511       2.64902280       3.71000000 
H      -2.96423051       2.61556987       4.25600000 
O      -3.46594780       5.95917747       3.63500000 
H      -3.73239825       6.52506540       4.36500000 
H      -3.60800198       5.05203602       3.94700000 
