     192
 i =     2200, time =     3300.000, E =     -1100.0663118323
  O         5.1960024890       -4.5410441358        4.0071770678
  H         6.1449804308       -4.5093779053        3.7986314282
  H         5.0793549656       -3.9907138689        4.8072668604
  O        -2.9016731860        2.9493845612        4.7251540090
  H        -3.1972848682        2.0844375773        4.3830473902
  H        -2.4865104716        2.7186622747        5.5631554805
  O         6.6085363304        2.9535119393        5.4073889719
  H         5.6903745257        3.2582269085        5.5310268540
  H         7.0154042084        3.5842703367        5.9468745813
  O        -2.4249864036       -0.6525095666       -3.0935299984
  H        -2.0266293317       -0.7008395793       -2.2407564076
  H        -1.7466204984       -1.0361108156       -3.6439409064
  O        -4.3972987124        5.3659831269        5.0796828267
  H        -4.1875633058        4.4998178386        4.7542185888
  H        -4.4926692320        5.9284028072        4.3192698528
  O         8.2873279891        0.6809616613        3.4223720767
  H         7.4713872906        0.3074885942        3.6878073418
  H         8.2335285130        0.9808463718        2.5203817110
  O         4.7835070305       -5.4008726070       -0.4075613442
  H         4.1034620826       -4.6993327028       -0.0771098042
  H         4.9171719098       -5.0222024452       -1.2955259855
  O        -0.9060058292       -3.3965509981       -0.9039598592
  H        -1.8606141503       -3.6065854177       -1.0438521060
  H        -0.8920341387       -2.4371648903       -0.7521873930
  O         3.5262711138       -2.6673173054        3.0102657189
  H         4.0543230523       -3.3953193202        3.3602401748
  H         3.2562311564       -2.9461809590        2.1151234603
  O         3.9682005519        3.4095129291        5.5045868473
  H         3.3944367699        2.6829100175        5.1149241113
  H         3.4077799982        3.6901158727        6.2704203986
  O         5.4393537106       -4.2930342595       -2.9069174466
  H         5.0040873430       -4.2864021717       -3.7657575008
  H         5.4387416055       -3.3004758376       -2.7308777210
  O         2.7711157162       -3.4541464484        0.5011407186
  H         1.8949459630       -3.7819150890        0.8988293048
  H         2.5446273921       -2.6393786368       -0.0223063117
  O         1.6030681167       -5.4626271491       -4.7470765878
  H         1.2778527915       -6.4013536490       -4.8456098420
  H         1.3306645520       -4.9347681268       -5.5417113397
  O         4.2499995672        4.8261177028       -3.3371755868
  H         4.2627025557        4.2723058824       -2.5791254657
  H         5.1510273219        5.0188981026       -3.6084654608
  O         1.9554525746       -0.7639912949        4.4359464729
  H         2.5906510204       -1.4635523179        4.3161755473
  H         2.4105780784       -0.0498970471        3.9172450729
  O        -1.2846906591        2.1651457862        7.0240593633
  H        -0.6862222709        1.3834269130        7.0495252987
  H        -2.0857883097        1.9168784089        7.6371080372
  O        -0.2865125998       -2.3109019393        3.2452755712
  H        -0.0310481034       -3.0729156981        2.5962600857
  H         0.5055985198       -2.0312002647        3.7468291693
  O        -2.0928019647        4.4412737669        2.7909341792
  H        -1.3700574185        3.8853049446        2.4886916571
  H        -2.3257437862        4.0003651789        3.6006919565
  O         0.3901892000       -0.0052229562       -5.7494381891
  H         0.9708771421       -0.2888929323       -6.5431972895
  H         1.0942923123        0.3942970158       -5.1877387441
  O        -0.9007109645       -0.7177164017       -0.7456639775
  H        -0.9133236461       -0.3305863118        0.1831889993
  H        -0.0199316498       -0.3395328607       -1.0307281620
  O        -4.5325184787        3.5173370394       -1.6086583525
  H        -4.5442015721        4.4537829913       -1.8856219211
  H        -3.6473006879        3.2847406466       -1.2355995560
  O         5.6565748404        3.5796791304        1.6507772999
  H         4.8327965043        3.2938297788        1.3138433695
  H         5.3446583015        4.2790053282        2.2580923057
  O         4.7786092029        1.2101572376       -3.9284883936
  H         5.4684022921        1.1055550960       -4.6391987868
  H         4.9595433475        0.4185630503       -3.3544236382
  O        -4.2870724801        6.0316096132       -2.7485185686
  H        -4.8914966264        6.2729547883       -2.0192833198
  H        -4.8565628521        6.0773259291       -3.5466099441
  O         5.6611046058        0.0817136019        0.2652912361
  H         5.9807896814       -0.5371038744        1.0101354973
  H         6.4089431670        0.6828703104        0.1503262140
  O         1.3260513256        0.4378109080       -1.5080270773
  H         1.8645833448        0.9637254511       -0.9140548388
  H         1.8381965352       -0.3565317351       -1.7587170965
  O        -4.9945653482       -5.8285737296       -0.3777911364
  H        -4.7215901786       -6.5363700002        0.2963382141
  H        -5.9781074499       -5.7261872757       -0.3593780998
  O        -4.3660467782        4.9096785019        1.6532539345
  H        -5.0698474012        4.3090651054        1.5977693393
  H        -3.5352784110        4.5011672261        1.9210849318
  O         6.9112175210        0.3115976397       -5.7378931705
  H         7.5402416082        0.4055579547       -5.0123617248
  H         7.1021957281        1.1602746012       -6.2229679547
  O         2.6874514763       -1.7190874562       -1.6569754990
  H         3.6049066778       -1.6104375396       -2.0000580673
  H         2.2924872663       -2.4245028509       -2.2091918096
  O         3.3928502178        1.5494248620        0.3117249031
  H         4.1211248718        0.9793581789        0.5019873170
  H         3.8662087792        2.2387586134       -0.2218710977
  O        -1.0597306455        0.1039857127        2.0583490669
  H        -0.7690001010       -0.7394197396        2.5314277408
  H        -2.0002781348        0.2485974346        2.3461169133
  O         2.2352151673       -8.3655152680        1.8680017840
  H         2.4771295545       -7.9104450350        1.0154797373
  H         2.9463739568       -8.0909485730        2.4781040825
  O         0.9615651088       -3.5340912948       -2.9035696000
  H         0.2629314669       -3.7664989096       -2.2558128821
  H         1.3521617475       -4.3402663924       -3.2828967250
  O        -4.1467829970        1.4131870669        0.8730942266
  H        -3.3207815703        1.4924116819        0.4270987955
  H        -4.4932978164        2.3329331965        0.8210577548
  O         4.2324916635       -4.7875515983       -5.1615139326
  H         3.2445086755       -4.9227242131       -5.0429977598
  H         4.2851647375       -3.9782968370       -5.7018231501
  O        -0.1656336397        3.0750529368       -2.6936434669
  H        -0.4003017068        2.8769543296       -3.6113672705
  H         0.3219377756        3.9229170237       -2.7366913725
  O        -4.8245854259       -5.2332247276        3.1764127594
  H        -4.2950445744       -4.5386416703        2.7106797697
  H        -4.9856487072       -5.9259182084        2.5427350721
  O         4.4931543600        5.3056173171        3.3701971012
  H         4.6804963248        6.2242617875        3.5215642411
  H         4.5954172147        4.8510766224        4.1989372770
  O        -3.7240479768        1.6380707586       -3.7686467537
  H        -3.2040707292        0.8645962124       -3.4654085580
  H        -3.6502101138        2.2883655666       -3.0457849601
  O         3.7545377478        0.9546921486        3.1636480251
  H         3.5152046577        1.3309257828        2.3511753811
  H         4.6373898339        0.5242110058        3.1963645290
  O        -6.4633851508       -1.2946810950        3.0390341587
  H        -7.3778019153       -1.7037023892        3.0413493081
  H        -5.7853411026       -1.9836960333        3.0650708139
  O        -0.1385669587        2.8480242154        1.6454885946
  H         0.8154695276        3.0914694187        1.6268063539
  H        -0.3043590598        1.9210920017        1.5667073908
  O        -2.0711166145        6.5770110194        0.6032314026
  H        -2.1129427240        6.1383587819        1.4504233601
  H        -2.9332495318        6.9811438550        0.4865915214
  O        -0.7756291676       -2.0143158590       -4.5393996597
  H        -0.0153750863       -2.4845012227       -4.0198072053
  H        -0.2411844353       -1.3281641555       -4.9832115446
  O        -7.2491040029        2.8927668118       -1.6523805662
  H        -6.2615535461        3.1118647249       -1.5603313628
  H        -7.3739351877        2.3136896053       -2.4235956456
  O         5.4402922445       -0.9838915581       -2.2872193833
  H         6.3227474102       -1.3433579740       -2.5075951647
  H         5.4561352167       -0.6108041516       -1.3624784521
  O        -1.9575921423        2.7781707450       -0.7403959284
  H        -1.3007495847        2.9313502802       -1.4268972755
  H        -1.5748424238        3.2216018037        0.0381408797
  O         0.0488268423        5.5961428399       -1.5294123070
  H        -0.3893536397        6.0312698025       -2.2831273675
  H        -0.6306678322        5.6573929887       -0.8345872301
  O         5.5841211467       -2.4273139383        5.9671325976
  H         6.4686615762       -2.7097472227        6.2193712754
  H         5.6188940221       -1.4968675424        6.0551432880
  O        -1.5552323750       -5.9052477449       -3.5436426518
  H        -1.5031615597       -6.5316581542       -4.2725150661
  H        -2.4181721013       -6.0517753202       -3.2053580267
  O        -4.6739616038       -2.1724725556       -3.0610600811
  H        -4.8032372304       -2.7745481780       -3.8930030901
  H        -3.8208296656       -1.7957742161       -3.2719578926
  O         2.7164686630        5.2264480586       -0.3873733791
  H         1.8723368509        5.4239662629       -0.8087606159
  H         3.4069244609        5.8007419473       -0.6856604349
  O        -4.6136079235       -3.7975798216       -5.1660455259
  H        -3.7060441088       -3.8459756461       -5.5875235045
  H        -4.8541854561       -4.7096067885       -4.9304877730
  O         0.5648275120        5.8948010301        3.2882315994
  H        -0.2211162774        5.3801450903        3.6193762980
  H         1.2043490478        5.2316501976        2.9016560297
  O        -2.0274783999       -4.2675455287       -5.6712226898
  H        -1.7505922202       -4.7585889348       -4.8364076357
  H        -1.6064616260       -3.4164359480       -5.4840580145
  O        -4.1165952651       -2.8547840882        1.9421835745
  H        -3.4104324306       -2.2847255552        2.2294653346
  H        -4.1005520958       -2.8483891658        0.9682319727
  O         2.1043366255        4.2777245376       -4.7870358297
  H         2.9043582829        4.4577494368       -4.2869882656
  H         1.9451912384        3.3529603725       -4.5454289452
  O         2.1710891805        1.5193145243       -4.1780539659
  H         2.0176729122        1.3060774867       -3.2520801661
  H         3.0754396927        1.2922730631       -4.3396169993
  O        -1.4873833920        5.0271894776        6.6658540909
  H        -1.2191197381        4.0392241518        6.6402711984
  H        -2.0634678356        5.2400117701        5.8354727270
  O         0.4420368327       -4.2895148644        1.7600847172
  H         0.6362300207       -5.1960104279        2.2115367408
  H        -0.1447764788       -4.6017568286        1.0700141763
  O         6.5646606341        6.0731979280        7.4281056349
  H         5.8503002627        6.6106322722        7.0345781497
  H         7.2260708657        5.8547711519        6.7690646029
  O         0.6255990566       -4.5079756027        5.2941461043
  H         0.7651438704       -5.2503790312        4.6974144485
  H        -0.3371625018       -4.4242274002        5.4166320668
  O        -3.7677026245       -3.3515581478       -0.9861602661
  H        -4.2077243506       -4.1707362969       -0.7615854944
  H        -4.1898522239       -2.9380405067       -1.8461765176
