       6
 i =      450, time =       90.000, E =       -34.4444063215
  O         2.7230404254        4.3364810636        3.2312425974
  H         2.2244605395        5.1118436709        3.5148844018
  H         2.7776383421        4.5382833752        2.2435719011
  O         5.8851648883        4.3260658381        4.9858176004
  H         5.6705971246        3.3723427922        5.0764132462
  H         5.1418247896        4.6723060994        4.5228979320