6
Properties=species:S:1:pos:R:3 i=0 time=0.0 E=-34.4504806384 pbc="F F F"
O        4.88407930      -0.24141375       4.35000000
H        5.11324858       0.44062030       3.71000000
H        3.93550625      -0.37370950       4.25600000
O        6.30672730      -2.78384284       3.63500000
H        6.85491083      -3.08504015       4.36500000
H        5.88844719      -1.96645264       3.94700000
