6
Properties=species:S:1:pos:R:3 i=0 time=0.0 E=-34.4504806384 pbc="F F F"
O       4.84869623       0.63455190       4.35000000 
H       4.95240078       1.34654513       3.71000000 
H       3.93898946       0.33500794       4.25600000 
O       6.70244993      -1.61299570       3.63500000 
H       7.29560478      -1.81147069       4.36500000 
H       6.14494109      -0.88342809       3.94700000 
