     192
 i =     4500, time =     6750.000, E =     -1100.0725206399
  O         6.0075563945       -3.1662673066        3.0134920349
  H         5.8325572002       -4.1129896272        2.9874225530
  H         6.5446135500       -2.9079056465        3.8248821467
  O        -4.5616120523        1.9107826768        5.1311710280
  H        -4.3874702874        1.2581237134        4.4973325546
  H        -3.9936046758        1.7596033010        5.9187530999
  O         6.1027443544        3.9555666732        5.7807040949
  H         5.3612894995        3.4160610267        6.0818148843
  H         6.8926096191        3.3383648654        5.7050239116
  O        -2.6481339973       -0.1665501163       -3.0786414610
  H        -2.2115876583        0.4371119803       -2.4413209199
  H        -1.9122274208       -0.6657106118       -3.5125690604
  O        -3.6971315082        5.2378578080        4.7907263914
  H        -4.6293966779        4.9080002203        4.7654137531
  H        -3.6303625830        5.9521517607        4.0981748718
  O         8.2180744054        0.0146211248        3.2783987938
  H         8.1604163507       -0.7010923043        3.9242589286
  H         7.4399394169       -0.1621038490        2.7160691245
  O         4.4365347898       -5.2667889985        0.3558261712
  H         4.3578450464       -4.3647380949       -0.0511831375
  H         3.6320372631       -5.8120578122        0.0297070775
  O        -0.8717946171       -2.6891723529       -1.9440842679
  H        -1.8112734811       -3.0282978987       -1.8593731020
  H        -0.8764367264       -2.0301399091       -1.1632911155
  O         3.3818871893       -2.5228383625        3.4708932918
  H         4.3408439358       -2.6272822775        3.2523365459
  H         2.8255023551       -2.5440551597        2.7094230882
  O         2.9603661465        3.7168501551        5.8580919428
  H         2.4622423756        2.9238961786        5.5896926651
  H         2.6888071638        3.8222522750        6.7664604191
  O         4.8750831290       -5.3043721454       -3.6048305635
  H         5.0581889553       -4.5983730960       -2.8804047075
  H         3.8361122092       -5.1702735653       -3.6689028100
  O         2.0162104425       -2.7751803064        1.2258327881
  H         1.2647714232       -3.3584723437        1.0524779676
  H         2.8612908464       -3.1422410168        0.9552588292
  O         2.2877420312       -5.1320545653       -4.4192641480
  H         1.9488030930       -6.0485701292       -4.4126745085
  H         2.3006924511       -4.9450765157       -5.3884182332
  O         4.5408734801        4.6143256877       -2.3691359900
  H         5.0868583122        4.0105796303       -2.9372812320
  H         4.7380904269        5.5684545028       -2.6068462990
  O         3.2129207541       -0.0701646529        4.7221359017
  H         3.0134560105       -0.9855011726        4.4927896328
  H         2.9306748966        0.4346889497        3.9321514057
  O        -0.6566246256        2.6014570752        7.9952878361
  H         0.0215362774        2.0104538352        7.5982634151
  H        -1.5382788354        2.2150701778        7.9340605883
  O        -1.2894904738       -3.5428030610        2.5169663204
  H        -0.7051979694       -3.8427925399        1.7747474772
  H        -0.8442598698       -3.8186646667        3.3149061173
  O        -1.7814217761        3.5323625881        3.2695316445
  H        -1.2717151103        2.7124242676        3.5790253162
  H        -2.5425133479        3.5985185881        3.8570427579
  O         1.5288105211        0.3259529912       -5.1128340419
  H         2.0034185529        0.3269535852       -5.9444622355
  H         2.0995142688       -0.1821030241       -4.5360619025
  O        -0.7263014013       -0.6394309613       -0.0600769991
  H        -1.0509460425       -0.4493102481        0.8527631647
  H         0.3138004347       -0.6459572427        0.1168762735
  O        -3.7620706668        3.0201145926       -2.2674929334
  H        -4.0794764143        3.9674685172       -2.2049210500
  H        -3.0778748430        2.7728131313       -1.5997118648
  O         5.5602744690        6.6506752363        2.6509985304
  H         5.1912796788        6.8851959653        1.8071709629
  H         4.8017271947        6.3036125193        3.1750764640
  O         6.2454203669       -0.1939629690       -4.2406203376
  H         5.9605242977       -0.2410815754       -5.1483428073
  H         6.7392523638       -1.0260293641       -3.9961144301
  O        -4.8454991318        5.2998940072       -2.8248385458
  H        -5.0700973175        5.9913557276       -2.2769543326
  H        -4.9975404953        5.5865420667       -3.7686250097
  O         5.5218373033        1.7244902969       -0.5970557230
  H         5.3814596758        1.8126928507        0.3733508225
  H         6.3823517699        2.1502556065       -0.7867911050
  O         1.9568435377       -0.0743402818        0.3647745718
  H         2.2951295884        0.3443089706       -0.4612064448
  H         2.3481797991       -0.9427630124        0.5349472087
  O        -5.1067868299       -5.5165309802       -0.0305928093
  H        -4.6371249891       -5.8096028172        0.7479121266
  H        -6.0287866880       -5.5069312227        0.2507890776
  O        -4.5310431847        2.2030891343        0.8190027801
  H        -4.8666660088        2.9759192899        1.2680986532
  H        -4.0011784329        1.7091239950        1.4539103819
  O         5.6486957746        0.0455171442       -6.8959200953
  H         6.1159389509        0.8742024837       -7.0141161822
  H         4.7479115284        0.1357352298       -7.3234331905
  O         4.3036798541       -2.6874293419       -0.3827610426
  H         5.0135055581       -2.0272585178       -0.5204234657
  H         3.6259039454       -2.5640851995       -1.0994340676
  O         2.8687332234        1.3747204887       -1.7426018695
  H         3.6540999216        1.7912041530       -1.2972563752
  H         2.1344914269        1.9920014629       -1.7896928211
  O        -1.6729991964       -0.6227379511        2.4131190256
  H        -1.8148122960       -1.5692007768        2.4665614252
  H        -2.5197689797       -0.2487376532        2.7680404339
  O         1.9550874217       -8.3544024879        2.0337621250
  H         2.0529037460       -8.0520330327        1.1124814280
  H         2.5541598444       -7.7664192554        2.5584448147
  O         2.0556692588       -2.7807345586       -1.9648625088
  H         1.2127510610       -3.2037424013       -2.2500044931
  H         2.2943116446       -2.1132459285       -2.7206675136
  O        -5.2862517368        4.3075570677        2.3900035517
  H        -5.9982865108        3.6985188902        2.6198408517
  H        -5.7675974735        5.1486255412        2.5634989151
  O         2.4812751891       -4.7860085350       -7.3258426162
  H         1.5222731049       -4.6263839926       -7.5568354618
  H         2.9071268586       -4.0626448389       -7.8325934612
  O         0.8337104235        3.0023564071       -2.1067929017
  H         0.2581639225        2.9250018404       -2.8931129996
  H         0.5195649929        3.7958352100       -1.5680932246
  O        -3.1691496712       -5.9327024859        1.8794989443
  H        -2.4593822336       -5.2551934322        2.0429398039
  H        -2.6643121041       -6.6633091446        1.4391552950
  O         3.3962644523        5.4849825658        3.9641288811
  H         2.9267483767        6.3044496414        4.2891071075
  H         3.2390468952        4.8693786903        4.7536243362
  O        -3.1619840368        1.8743972630       -4.8784810857
  H        -3.1061295438        0.9620848307       -4.4812581576
  H        -3.4552682191        2.4501027068       -4.1599284800
  O         2.3693316558        1.5204286325        2.4795970120
  H         1.9870986578        2.4259316714        2.2712452330
  H         2.2031966966        0.9638434035        1.7438168616
  O        -7.3653881020        1.8255482564        2.0176770364
  H        -8.3854931605        1.8950714904        2.2027594045
  H        -7.0667660857        0.8972626554        2.2726245400
  O        -0.1797870333        1.3630509368        3.7385488572
  H         0.7059611678        1.2401266962        3.3962276164
  H        -0.5956061554        0.5089569144        3.4996658185
  O        -2.3301548974        4.2125246322        0.8439682870
  H        -2.1248662739        3.8525602101        1.7416200841
  H        -3.1742185968        3.7418158845        0.6069763621
  O        -0.6285739646       -1.4321447914       -4.5801107426
  H        -0.3313177966       -1.9419377445       -3.8472672696
  H         0.1954414371       -0.9296713104       -4.7464310731
  O        -6.2386067825        2.5323650393       -3.5789374816
  H        -5.4255670438        2.5549947411       -3.0861711628
  H        -6.3328768837        1.5907304820       -3.5640814076
  O         5.8831756588       -0.7623885318       -1.0472403263
  H         6.4906596538       -1.0762101221       -1.7335755663
  H         5.7846221369        0.2445382509       -1.1028819099
  O        -1.6544905618        1.7043809202       -0.9235217072
  H        -0.8404508025        1.9451747974       -1.3794895350
  H        -1.4519062265        0.7513859917       -0.6366929816
  O        -0.2293752655        5.3687209943       -0.8897720132
  H        -0.6670427240        5.8172722072       -1.7100207070
  H        -0.8460926851        4.7932867622       -0.3828116047
  O         7.5184303842       -1.9257924324        5.0403414042
  H         7.6070185384       -2.6941807069        5.6328716088
  H         6.7966546384       -1.3424059533        5.4068095713
  O        -1.4183842988       -6.0396135275       -3.0250215315
  H        -1.7834351800       -6.4774089064       -3.7962450982
  H        -2.1105256679       -5.4320596684       -2.6795663096
  O        -4.8199737582       -2.4179701902       -2.9909922450
  H        -4.6664276491       -2.8917008842       -3.8167750941
  H        -4.0677621799       -1.8079041079       -2.9263080969
  O         2.5592673521        5.3915529771       -0.4721192072
  H         1.6168579253        5.5238601642       -0.7665804554
  H         3.0738150872        4.9120834021       -1.1458687792
  O        -4.3234167181       -3.8038956795       -5.5789809564
  H        -3.3555486093       -3.9243824572       -5.7468639123
  H        -4.6186915367       -4.7861922751       -5.5651980777
  O        -0.1260309157        5.6684436283        3.0816324992
  H        -0.6191240487        5.0033408411        3.5302217258
  H         0.5397207852        5.1061463409        2.6005421431
  O        -1.6662064581       -4.1042455434       -5.3356007785
  H        -1.3364074950       -4.9530160409       -4.9997865453
  H        -1.1238234703       -3.3594949827       -5.0402549074
  O        -6.3558261926       -0.7220778732        1.9194701660
  H        -6.4624406068       -0.6572714449        0.9604934855
  H        -6.3504039589       -1.6981134772        2.1110378921
  O         2.4299296492        4.4600892420       -4.0693297886
  H         3.2459366736        4.5579145446       -3.5565364397
  H         1.8927630217        3.8805191182       -3.5158298846
  O         3.7267537122       -0.9741805969       -3.2461303700
  H         3.5516664493       -0.1236040494       -2.8394179206
  H         4.6058493592       -0.9024158479       -3.5919233186
  O        -2.0856090061        5.6461424870        6.8503435665
  H        -1.7271044121        4.7467802433        6.9816547935
  H        -2.8297088061        5.4807519901        6.2288673574
  O        -0.0373003285       -4.5265423787        0.2444663234
  H        -0.1915331032       -5.4439059779       -0.0051019448
  H        -0.2446010096       -3.9277786602       -0.5090275715
  O         6.9496471839        6.2069717882        7.2639584375
  H         6.0553078214        6.5456523062        7.5020211158
  H         6.7381698316        5.5603479832        6.5789863105
  O        -0.0752500680       -4.7875463018        4.6424599102
  H        -0.0714263010       -5.7150684120        4.1751994258
  H        -0.3863959579       -4.9807340789        5.5358069037
  O        -2.9914644401       -4.2937526601       -1.7609329866
  H        -3.3143127223       -4.7203356673       -0.9621160914
  H        -3.8508713127       -3.8454682395       -1.9754987043
