     192
 i =     5600, time =     8400.000, E =     -1100.0960055810
  O         6.0148930220       -3.8908754593        3.3515851358
  H         6.2586569881       -4.8310783845        3.2692502411
  H         6.6611841461       -3.4006406724        3.9363515538
  O        -5.5460366610        1.9992069931        5.3876135321
  H        -5.0834613535        1.4196480253        4.7212084130
  H        -4.9076278914        2.0941130970        6.1424483220
  O         6.5690662510        4.8143344066        5.3098617485
  H         5.6193685539        4.8045033930        5.2800278919
  H         6.8135779968        3.8650347255        5.1947184838
  O        -2.3044899830        0.8307653065       -3.9729755279
  H        -2.0055169747        0.8355974383       -2.9992590331
  H        -2.1816628885       -0.0352047276       -4.2827585584
  O        -3.5236970226        5.5326340627        4.3632567464
  H        -4.4615699054        5.4563680441        4.5898951054
  H        -3.5822314307        6.0786782281        3.6006770143
  O         8.0158051078       -0.0184321074        3.7446714202
  H         7.5613776139       -0.7288845924        4.2212751758
  H         7.7672484061       -0.1563794602        2.8285956178
  O         4.3004727040       -5.4700390743        0.7172008332
  H         4.0945575847       -4.6750582468        0.1490039937
  H         3.5538763980       -6.0828543515        0.5001352936
  O        -1.2775142235       -2.2888224358       -1.8046796133
  H        -1.6598851993       -3.1831095176       -1.8356872869
  H        -1.5614059244       -1.8674522980       -0.9874408800
  O         3.6328608040       -2.7469429411        3.9702783182
  H         4.4251498079       -3.2655167061        3.6875768795
  H         3.0809028805       -2.7925478911        3.1371096759
  O         2.9943927961        3.3482860757        6.5233137887
  H         3.5102203917        2.5543072047        6.5692468449
  H         3.1674548083        3.8854351022        7.3370095152
  O         4.9367470101       -3.0777189596       -5.3583638000
  H         4.9134563498       -2.3271730982       -4.7171722355
  H         4.0352868236       -3.3419292021       -5.2982391470
  O         2.1117932956       -2.7866243888        1.4621540471
  H         1.5385902446       -3.4847729427        1.1786337832
  H         2.9589249374       -2.9832769132        1.0038902321
  O         1.7541844429       -5.0815704890       -4.8811723440
  H         2.1943421017       -5.8745276138       -4.6030362752
  H         1.8702298603       -5.0304741081       -5.8341235234
  O         4.7761957832        4.4439678989       -1.9619687303
  H         5.3320570687        3.7343198247       -2.2177173300
  H         5.4872026097        5.1370782227       -1.9638749157
  O         2.7536244780       -0.3299532736        5.1567384165
  H         3.0768409573       -1.1995681032        4.8735637574
  H         2.0713602231       -0.0756602279        4.5271061032
  O        -0.6005666701        2.4925373402        6.7060278447
  H        -0.5075114869        1.8279656470        5.9869744881
  H        -1.0409348260        2.0149314054        7.4385784536
  O        -1.5207460360       -3.6806146205        3.0550859073
  H        -0.8755305983       -3.8059904792        2.3699782068
  H        -1.1656346494       -4.3647049973        3.6580108688
  O        -2.2496374688        3.0212040868        2.8926273047
  H        -1.8784608734        2.3461208129        3.4662783426
  H        -2.8301166493        3.5806181215        3.4994240810
  O         1.6283444234       -1.2540303460       -4.8239824551
  H         2.0441312323       -0.7413514799       -5.5768110909
  H         2.0227404217       -0.8532535544       -4.0449533329
  O        -1.2593737443       -0.5160941086        0.3582571588
  H        -1.4467145082       -0.4502843391        1.3181235460
  H        -0.2652582242       -0.3733460370        0.3708489024
  O        -3.1318500868        4.2933058118       -2.8408896451
  H        -3.7294578741        4.8584676616       -2.3754470217
  H        -3.0493109011        3.5571725177       -2.1825671996
  O         5.7740898666        6.0416140632        2.6246536513
  H         4.9708201576        6.3243417969        2.0496093620
  H         5.4571706077        5.4076106671        3.2634424289
  O         5.3311665861       -0.6665732288       -3.9696963597
  H         5.3376331423       -0.1072077437       -4.7777471126
  H         6.2659046647       -0.8415443518       -3.5459710701
  O        -5.4005152945        5.7869411087       -2.0710626752
  H        -5.2485355400        6.4628491547       -1.4051772898
  H        -5.4266521359        6.2054093299       -2.9374600143
  O         7.9453992227        0.9412653258       -1.2858649220
  H         8.6127099737        1.4860969641       -0.8229206031
  H         7.4222984286        1.5552550160       -1.8115436167
  O         1.4550906593       -0.3736480288        0.5924482801
  H         2.0494307957       -0.2181937180       -0.1342863537
  H         1.5711058957       -1.2625916144        0.9696367329
  O        -5.4181818317       -5.0126709695        0.2051550086
  H        -4.7374842628       -5.0602035224        0.8630566111
  H        -6.1829109061       -5.5027475335        0.5834282924
  O        -3.3839053320        3.2902317458        0.0766485891
  H        -4.2492570448        3.4401778671        0.5166539909
  H        -2.8290543840        3.0484882131        0.8418836516
  O         4.6887853100        1.0694479606       -5.9486212709
  H         5.5238303231        1.3416840025       -6.3595846002
  H         4.1074912045        0.5684405084       -6.5969857213
  O         3.8958796615       -3.1275529236       -0.5245637830
  H         4.6525957458       -2.5898566636       -0.4770531501
  H         3.4816539167       -3.2571220102       -1.3707391272
  O         3.0304287252        1.7503850921       -1.2052017263
  H         3.6545159851        1.7126529545       -0.4425164261
  H         2.2878514563        2.3255029601       -1.0054717312
  O        -1.9655712578       -0.9223553137        3.2014178268
  H        -1.7936078368       -1.8765929336        3.4035050370
  H        -2.9322099262       -0.7059052382        3.2989328798
  O         3.0804996731       -8.8460467853        2.5410778039
  H         2.8645579940       -8.3389099593        1.7422566995
  H         3.0238963775       -8.1707569178        3.2567471224
  O         2.2140447476       -3.5513908382       -2.8023988221
  H         1.8945502078       -3.9605925821       -3.6395258550
  H         1.9628685246       -2.6085580084       -2.8665214548
  O        -5.7370107318        4.0411017366        1.0237783402
  H        -6.4682139489        3.4754474948        1.1923351443
  H        -5.8779192561        4.7349781236        1.7593966856
  O         2.1357804276       -4.9475153375       -7.4359678995
  H         1.1780902425       -5.0590074453       -7.6458004746
  H         2.6330651551       -4.2514937150       -7.8408358445
  O         0.6459753936        3.2271591172       -2.8019552916
  H         0.8230843453        2.8638201220       -3.6919555668
  H        -0.0279745522        3.9075387226       -3.0220736315
  O        -3.4169514667       -5.2763867050        2.0027928893
  H        -2.8334039190       -4.5560210831        2.3147145840
  H        -2.7629643281       -5.7323118793        1.4077699773
  O         3.5940786120        5.0825062754        4.5623253301
  H         3.3114507944        5.8683003787        4.9678004284
  H         3.3037936315        4.4318104451        5.2708157278
  O        -4.4343592375        2.5035049313       -4.4081762189
  H        -3.6809291424        1.9290050583       -4.1158508472
  H        -4.0887135192        3.3713715141       -4.3649165636
  O         1.4556251340        1.2730191229        3.0005414871
  H         2.0230502097        2.0903316180        2.9377087581
  H         1.6186070076        0.7521333391        2.1561368964
  O        -7.5663421305        1.5585998738        1.0184486000
  H        -7.8071031854        1.6820201507        1.9551250399
  H        -6.7756544773        0.9926811393        1.0945136330
  O        -0.9148919134        1.1742601631        4.4685255117
  H        -0.0627678271        1.2527119407        3.9940761924
  H        -1.2645465186        0.3306897111        4.1188266363
  O        -2.0201211540        5.6500967385        0.3706278121
  H        -1.2345669764        5.1767078900        0.7187493524
  H        -2.6316404644        4.8718096418        0.2897966648
  O        -1.0989121521       -1.5732256478       -4.5099715869
  H        -1.2110437248       -1.6314830528       -3.5421283062
  H        -0.1374131299       -1.4164597355       -4.6442375882
  O        -6.6056029312        2.2620232103       -2.9756241152
  H        -5.9030659097        1.9173612481       -3.5382099611
  H        -7.2848874933        1.6188944090       -2.8987619451
  O         6.4200444241       -2.4311068227        0.1167531809
  H         6.7272845216       -3.3401156182        0.2053874113
  H         6.8198036810       -2.1872639388       -0.7314257088
  O        -1.5169856547        1.8295108211       -1.5266562332
  H        -0.6384323584        2.0880672925       -1.9114047558
  H        -1.4016895826        1.2106632263       -0.8365044922
  O         0.8486533971        6.3711709239       -1.6696633046
  H         1.0618841974        7.3441536165       -1.7653689887
  H         0.2232397273        6.1930735345       -2.3859304330
  O         6.9191311312       -2.1617947881        5.3870587575
  H         7.7549248893       -2.3598149355        5.8491564170
  H         6.1559132847       -2.5907883714        5.8773256941
  O        -0.9587802498       -7.0217340705       -3.8181076082
  H        -1.0787610481       -7.0826053247       -4.7764869175
  H        -1.7577269945       -7.5025655368       -3.5074999329
  O        -4.8030243521       -1.5380356235       -2.6470225401
  H        -4.2828215431       -2.2959739394       -2.9864150194
  H        -4.2345114991       -0.8513919910       -2.3139242419
  O         2.7971285107        4.7636217128       -0.1111628958
  H         2.0718119495        4.9852089448       -0.6922689962
  H         3.5058267321        4.4825244917       -0.7051896720
  O        -3.6949192139       -3.6441405604       -4.9773728314
  H        -2.9013431367       -4.1438805636       -5.0267388123
  H        -4.4124264359       -4.2794002764       -5.1539838543
  O        -0.0315110983        4.3186072316        1.6798238689
  H        -0.5260355834        3.9004533275        2.3837992180
  H         0.6276185761        3.6665996292        1.3855130016
  O        -1.0389760075       -4.2346344593       -5.0975404453
  H        -0.2139107159       -4.5813548073       -4.6564650459
  H        -1.0472674002       -3.3238518307       -4.8229137951
  O        -5.1528260218       -0.1299998120        1.2645529527
  H        -5.0934162765        0.4168477248        0.4786510699
  H        -5.2784582549       -1.0228126678        0.9123312503
  O         2.8733312748        4.9740118378       -3.8132376249
  H         3.6282908235        4.7306553829       -3.1782097504
  H         2.1468546552        4.6060274483       -3.2524193695
  O         2.8314989944       -0.6104987991       -2.3678264409
  H         2.9166735924        0.3403698324       -2.1512261719
  H         3.7287643561       -0.7576215698       -2.6397287616
  O        -1.2771349045        5.0158129838        6.0087807683
  H        -1.0866875136        4.0666256390        6.2137074261
  H        -2.2302182934        5.0094221081        5.7568370915
  O         0.0308080144       -4.1060917885        0.3332143016
  H        -0.1668267804       -5.0099941807        0.1629997504
  H        -0.1561247653       -3.6605547183       -0.4926241646
  O         6.4430952711        6.9322058895        7.4904563710
  H         5.7879712253        7.6125033887        7.2517274677
  H         6.1478941011        6.2136962654        6.9776133241
  O        -0.5550039221       -5.1913785564        4.9766582720
  H        -0.6569156714       -6.1692391812        5.0960440074
  H        -0.7376971263       -4.7489494636        5.8203544602
  O        -2.3607586206       -5.2688158518       -2.0572680349
  H        -2.2011276493       -5.8160450483       -1.2556256740
  H        -1.9085581883       -5.6749552277       -2.7893242638
