       6
 i =      125, time =       25.000, E =       -34.4472055113
  O         2.4490973593        4.2061040090        4.2628218029
  H         2.3646172599        4.8107391084        3.5072030262
  H         2.0542191841        3.4245971578        3.8832985139
  O         5.4589437252        4.2409306750        3.7419343183
  H         6.2384811399        4.2084477741        4.2830664928
  H         4.7099755987        4.1549661641        4.3519465102
