6
Properties=species:S:1:pos:R:3 i=0 time=0.0 E=-34.4504806384 pbc="F F F"
O       4.31655293       2.29779940       4.35000000 
H       4.16346824       3.00083146       3.71000000 
H       3.57010593       1.69770784       4.25600000 
O       6.84183343       0.84492935       3.63500000 
H       7.46690480       0.86752982       4.36500000 
H       6.06352252       1.33208141       3.94700000 
