       6
 i =       50, time =       10.000, E =       -34.4493536974
  O         2.4994273801        4.1966958077        4.3116581400
  H         2.1188851615        4.7638789273        3.6262092631
  H         2.1049896824        3.3226528793        4.1072411207
  O         5.4476323775        4.2330067216        3.6733477374
  H         6.1504696622        4.4341787515        4.3287802819
  H         4.6366103452        4.1910872901        4.2042223626
