       6
 i =      425, time =       85.000, E =       -34.4481868474
  O         2.4511901372        4.2574887789        3.9956159487
  H         2.4808132091        5.1838433118        3.6153942567
  H         1.9340345909        3.7894214370        3.3115162295
  O         5.3730693413        4.2146098072        4.0316848577
  H         5.9468155479        3.8942096464        4.7335870413
  H         4.4390503208        3.9220444236        4.2659136035
