6
Properties=species:S:1:pos:R:3 i=0 time=0.0 E=-34.4504806384 pbc="F F F"
O       4.48781864      -1.94216248       4.35000000 
H       4.94202450      -1.38414273       3.71000000 
H       3.55324608      -1.73271768       4.25600000 
O       4.92640573      -4.82235594       3.63500000 
H       5.33380112      -5.29696525       4.36500000 
H       4.82200764      -3.91011363       3.94700000 
